#------------------------------------------------------------------------------
#$Date: 2019-03-18 09:35:25 +0200 (Mon, 18 Mar 2019) $
#$Revision: 214153 $
#$URL: file:///home/coder/svn-repositories/cod/cif/1/54/41/1544171.cif $
#------------------------------------------------------------------------------
#
# This file is available in the Crystallography Open Database (COD),
# http://www.crystallography.net/
#
# All data on this site have been placed in the public domain by the
# contributors.
#
data_1544171
loop_
_publ_author_name
'Qian, Mingxing'
'Engler-Chiurazzi, Elizabeth B'
'Lewis, Sara E.'
'Rath, Nigam P.'
'Simpkins, James W.'
'Covey, Douglas F.'
_publ_section_title
;
 Structure-activity studies of non-steroid analogues structurally-related
 to neuroprotective estrogens.
;
_journal_issue                   41
_journal_name_full               'Organic &amp; biomolecular chemistry'
_journal_page_first              9790
_journal_page_last               9805
_journal_paper_doi               10.1039/c6ob01726f
_journal_volume                  14
_journal_year                    2016
_chemical_absolute_configuration ad
_chemical_formula_moiety         'C18 H24 O2, 0.5(C H2 Cl2)'
_chemical_formula_sum            'C18.5 H25 Cl O2'
_chemical_formula_weight         314.83
_space_group_crystal_system      monoclinic
_space_group_IT_number           4
_space_group_name_Hall           'P 2yb'
_space_group_name_H-M_alt        'P 1 21 1'
_symmetry_space_group_name_Hall  'P 2yb'
_symmetry_space_group_name_H-M   'P 1 21 1'
_atom_sites_solution_hydrogens   geom
_atom_sites_solution_primary     direct
_atom_sites_solution_secondary   difmap
_audit_creation_method           SHELXL-2014/7
_audit_update_record
;
2016-02-01 deposited with the CCDC.
2016-09-20 downloaded from the CCDC.
;
_cell_angle_alpha                90
_cell_angle_beta                 92.162(3)
_cell_angle_gamma                90
_cell_formula_units_Z            4
_cell_length_a                   7.6590(4)
_cell_length_b                   20.7140(10)
_cell_length_c                   10.7415(6)
_cell_measurement_reflns_used    9984
_cell_measurement_temperature    100(2)
_cell_measurement_theta_max      24.63
_cell_measurement_theta_min      2.66
_cell_volume                     1702.91(15)
_computing_cell_refinement       'SAINT V8.34A (Bruker AXS Inc., 2013)'
_computing_data_collection       'Bruker APEX2'
_computing_data_reduction        'SAINT V8.34A (Bruker AXS Inc., 2013)'
_computing_molecular_graphics    'Bruker SHELXTL'
_computing_publication_material  'Bruker SHELXTL'
_computing_structure_refinement  'SHELXL-2014/7 (Sheldrick, 2014)'
_computing_structure_solution    'SHELXT-2013 (Sheldrick, 2008)'
_diffrn_ambient_temperature      100(2)
_diffrn_measured_fraction_theta_full 1.000
_diffrn_measured_fraction_theta_max 0.999
_diffrn_measurement_device_type  'Bruker APEX-II CCD'
_diffrn_measurement_method       '\f and \w scans'
_diffrn_radiation_type           MoK\a
_diffrn_radiation_wavelength     0.71073
_diffrn_reflns_av_R_equivalents  0.0524
_diffrn_reflns_av_unetI/netI     0.0520
_diffrn_reflns_Laue_measured_fraction_full 1.000
_diffrn_reflns_Laue_measured_fraction_max 0.999
_diffrn_reflns_limit_h_max       9
_diffrn_reflns_limit_h_min       -9
_diffrn_reflns_limit_k_max       24
_diffrn_reflns_limit_k_min       -25
_diffrn_reflns_limit_l_max       12
_diffrn_reflns_limit_l_min       -12
_diffrn_reflns_number            38876
_diffrn_reflns_point_group_measured_fraction_full 0.995
_diffrn_reflns_point_group_measured_fraction_max 0.991
_diffrn_reflns_theta_full        25.000
_diffrn_reflns_theta_max         25.449
_diffrn_reflns_theta_min         1.897
_exptl_absorpt_coefficient_mu    0.228
_exptl_absorpt_correction_T_max  0.7452
_exptl_absorpt_correction_T_min  0.6628
_exptl_absorpt_correction_type   multi-scan
_exptl_absorpt_process_details   'SADABS V2014/5 (Bruker AXS Inc.)'
_exptl_crystal_colour            colourless
_exptl_crystal_density_diffrn    1.228
_exptl_crystal_density_method    'not measured'
_exptl_crystal_description       plate
_exptl_crystal_F_000             676
_exptl_crystal_size_max          0.227
_exptl_crystal_size_mid          0.195
_exptl_crystal_size_min          0.078
_refine_diff_density_max         0.201
_refine_diff_density_min         -0.164
_refine_diff_density_rms         0.037
_refine_ls_abs_structure_details
; 
 Flack x determined using 1913 quotients [(I+)-(I-)]/[(I+)+(I-)] 
 (Parsons, Flack and Wagner, Acta Cryst. B69 (2013) 249-259). 
;
_refine_ls_abs_structure_Flack   0.9(5)
_refine_ls_extinction_method     none
_refine_ls_goodness_of_fit_ref   1.033
_refine_ls_hydrogen_treatment    constr
_refine_ls_matrix_type           full
_refine_ls_number_parameters     367
_refine_ls_number_reflns         6242
_refine_ls_number_restraints     1
_refine_ls_restrained_S_all      1.033
_refine_ls_R_factor_all          0.0677
_refine_ls_R_factor_gt           0.0444
_refine_ls_shift/su_max          0.006
_refine_ls_shift/su_mean         0.000
_refine_ls_structure_factor_coef Fsqd
_refine_ls_weighting_details
'w=1/[\s^2^(Fo^2^)+(0.0493P)^2^+0.2383P] where P=(Fo^2^+2Fc^2^)/3'
_refine_ls_weighting_scheme      calc
_refine_ls_wR_factor_gt          0.0932
_refine_ls_wR_factor_ref         0.1010
_reflns_Friedel_coverage         0.925
_reflns_Friedel_fraction_full    0.990
_reflns_Friedel_fraction_max     0.982
_reflns_number_gt                4814
_reflns_number_total             6242
_reflns_threshold_expression     'I > 2\s(I)'
_cod_data_source_file            c6ob01726f3.cif
_cod_data_source_block           d27909_sq
_cod_depositor_comments
;
Adding full bibliography for 1544171--1544174.cif.

2019-02-26
Z value and formula fixed to values more according to usual
chemical conventions.                 miguel
;
_cod_original_formula_sum            'C37 H50 Cl2 O4'
_cod_original_formula_weight         629.67
_cod_original_formula_moiety         '2(C18 H24 O2), C H2 Cl2'
_cod_original_formula_units_Z            2
_cod_database_code               1544171
_shelx_shelxl_version_number     2014/7
_shelx_space_group_comment
; 
The symmetry employed for this shelxl refinement is uniquely defined 
by the following loop, which should always be used as a source of 
symmetry information in preference to the above space-group names. 
They are only intended as comments. 
;
_shelx_estimated_absorpt_t_min   0.950
_shelx_estimated_absorpt_t_max   0.982
_shelx_res_file
; 
  
    d27909_sq.res created by SHELXL-2014/7 
  
  
REM 1 mol of CH2Cl2 over 2 sites squeezed 
TITL dc27909/lt/MQ2072 in P2(1) 
CELL 0.71073   7.6590  20.7140  10.7415  90.000  92.162  90.000 
ZERR    2.00   0.0004   0.0010   0.0006   0.000   0.003   0.000 
LATT -1 
SYMM -X, 0.5+Y, -Z 
SFAC C  H  O  Cl 
UNIT 74  100  8  4 
SIZE 0.078 0.195 0.227 
TEMP -173.0 
OMIT -3.0 
L.S. 15 0   53 
ACTA 50 
bond $h 
FMAP 2 
PLAN 5 
wpdb -2 
  
REM Instructions for potential hydrogen bonds 
EQIV $1 -x+1, y-1/2, -z+1 
HTAB O1 O7'_$1 
EQIV $2 -x, y+1/2, -z+1 
HTAB O7 O1_$2 
EQIV $3 -x+1, y-1/2, -z 
HTAB O1' O7_$3 
EQIV $4 -x+1, y+1/2, -z 
HTAB O7' O1'_$4 
HTAB C6 O7' 
  
CONF 
ABIN 
  
WGHT    0.049300    0.238300 
FVAR       0.22855 
O1    3    0.414299    0.167584    0.670547    11.00000    0.02920    0.05313 = 
         0.05078    0.03048   -0.01093   -0.01020 
AFIX 147 
H1    2    0.469447    0.149539    0.729999    11.00000   -1.50000 
AFIX   0 
O7    3   -0.077216    0.631355    0.324032    11.00000    0.02470    0.02544 = 
         0.03986    0.00070    0.00286    0.00192 
AFIX 147 
H7    2   -0.181531    0.640909    0.337086    11.00000   -1.50000 
AFIX   0 
O1'   3    0.934855    0.135658   -0.086530    11.00000    0.03026    0.02476 = 
         0.04966   -0.00725    0.01233   -0.00586 
AFIX 147 
H1'   2    0.969434    0.145304   -0.157449    11.00000   -1.50000 
AFIX   0 
O7'   3    0.402749    0.611804    0.129476    11.00000    0.02642    0.02582 = 
         0.03218   -0.00546   -0.00081    0.00354 
AFIX 147 
H7'   2    0.300068    0.620500    0.104774    11.00000   -1.50000 
AFIX   0 
C1    1    0.521516    0.217259    0.618833    11.00000    0.02626    0.04246 = 
         0.05093    0.02338   -0.00713   -0.00618 
AFIX  13 
H1A   2    0.582849    0.241160    0.688548    11.00000   -1.20000 
AFIX   0 
C2    1    0.658568    0.190548    0.531401    11.00000    0.03348    0.04344 = 
         0.07226    0.02375    0.00313    0.00673 
AFIX  23 
H2A   2    0.620013    0.148653    0.495538    11.00000   -1.20000 
H2B   2    0.772144    0.184331    0.576906    11.00000   -1.20000 
AFIX   0 
C3    1    0.674620    0.242007    0.427437    11.00000    0.04748    0.04727 = 
         0.06692    0.01990    0.01867    0.01066 
AFIX  23 
H3A   2    0.797916    0.254916    0.418223    11.00000   -1.20000 
H3B   2    0.627028    0.225585    0.346521    11.00000   -1.20000 
AFIX   0 
C4    1    0.504400    0.349840    0.382871    11.00000    0.03010    0.03037 = 
         0.03428    0.00562    0.00524   -0.00128 
AFIX  23 
H4A   2    0.424520    0.330681    0.318351    11.00000   -1.20000 
H4B   2    0.605598    0.368506    0.340876    11.00000   -1.20000 
AFIX   0 
C5    1    0.342446    0.455059    0.357551    11.00000    0.02320    0.02803 = 
         0.02669    0.00718    0.00297   -0.00628 
AFIX  23 
H5A   2    0.427259    0.491142    0.358889    11.00000   -1.20000 
H5B   2    0.340525    0.436113    0.272895    11.00000   -1.20000 
AFIX   0 
C6    1    0.123095    0.544923    0.347439    11.00000    0.02193    0.02612 = 
         0.01855   -0.00269    0.00084   -0.00681 
AFIX  43 
H6    2    0.209807    0.571816    0.313508    11.00000   -1.20000 
AFIX   0 
C7    1   -0.044324    0.569261    0.363514    11.00000    0.02337    0.02611 = 
         0.02853    0.00026   -0.00313    0.00042 
C8    1   -0.169097    0.529838    0.414411    11.00000    0.01450    0.04061 = 
         0.03865    0.00753   -0.00100   -0.00477 
AFIX  43 
H8    2   -0.283000    0.546000    0.427595    11.00000   -1.20000 
AFIX   0 
C9    1   -0.127389    0.467233    0.445757    11.00000    0.01733    0.03929 = 
         0.04795    0.01406    0.00208   -0.00946 
AFIX  43 
H9    2   -0.213782    0.440332    0.480059    11.00000   -1.20000 
AFIX   0 
C10   1    0.091734    0.374499    0.466292    11.00000    0.02020    0.03942 = 
         0.04042    0.01159    0.00196   -0.00395 
AFIX  23 
H10A  2    0.101348    0.347043    0.391423    11.00000   -1.20000 
H10B  2    0.002907    0.355359    0.519816    11.00000   -1.20000 
AFIX   0 
C11   1    0.323425    0.317495    0.611814    11.00000    0.02800    0.04631 = 
         0.03123    0.01388    0.00442   -0.00286 
AFIX  23 
H11A  2    0.401738    0.330800    0.682642    11.00000   -1.20000 
H11B  2    0.217392    0.298532    0.647033    11.00000   -1.20000 
AFIX   0 
C12   1    0.289288    0.228811    0.450230    11.00000    0.04280    0.03369 = 
         0.05047    0.01548   -0.01660   -0.00218 
AFIX 137 
H12A  2    0.341825    0.187626    0.426844    11.00000   -1.50000 
H12B  2    0.266064    0.254910    0.375329    11.00000   -1.50000 
H12C  2    0.179417    0.220647    0.491404    11.00000   -1.50000 
AFIX   0 
C3A   1    0.566697    0.298021    0.473016    11.00000    0.02217    0.03139 = 
         0.04116    0.01413    0.00615    0.00294 
AFIX  13 
H3A1  2    0.639713    0.320201    0.539253    11.00000   -1.20000 
AFIX   0 
C4A   1    0.409612    0.402820    0.451784    11.00000    0.01595    0.03370 = 
         0.02588    0.00385    0.00100   -0.00340 
AFIX  13 
H4A1  2    0.500089    0.424451    0.506859    11.00000   -1.20000 
AFIX   0 
C5A   1    0.164096    0.482165    0.380323    11.00000    0.02028    0.02501 = 
         0.02440   -0.00031   -0.00320   -0.00698 
C9A   1    0.038142    0.442526    0.428357    11.00000    0.02143    0.03186 = 
         0.03497    0.00568   -0.00211   -0.00726 
C10A  1    0.269425    0.378096    0.537992    11.00000    0.02270    0.03419 = 
         0.03238    0.01009    0.00461   -0.00339 
AFIX  13 
H10C  2    0.256084    0.412749    0.601750    11.00000   -1.20000 
AFIX   0 
C11A  1    0.415095    0.265118    0.539423    11.00000    0.02184    0.03722 = 
         0.03282    0.01333   -0.00099   -0.00236 
C1'   1    1.004077    0.179983    0.002035    11.00000    0.03144    0.02447 = 
         0.03280   -0.00171    0.00843   -0.00155 
AFIX  13 
H1'1  2    0.967133    0.165321    0.085744    11.00000   -1.20000 
AFIX   0 
C2'   1    1.206126    0.182647    0.006942    11.00000    0.03031    0.03680 = 
         0.05225   -0.01086   -0.00180    0.00618 
AFIX  23 
H2'1  2    1.252327    0.173465   -0.076061    11.00000   -1.20000 
H2'2  2    1.255255    0.150776    0.067355    11.00000   -1.20000 
AFIX   0 
C3'   1    1.253065    0.252684    0.048944    11.00000    0.03008    0.04039 = 
         0.06520   -0.01700   -0.00767    0.00611 
AFIX  23 
H3'1  2    1.333435    0.252318    0.123319    11.00000   -1.20000 
H3'2  2    1.308726    0.276688   -0.018689    11.00000   -1.20000 
AFIX   0 
C4'   1    1.060951    0.355076    0.078630    11.00000    0.01968    0.03444 = 
         0.04034   -0.01110   -0.00253   -0.00143 
AFIX  23 
H4'1  2    1.084967    0.371831   -0.005328    11.00000   -1.20000 
H4'2  2    1.148319    0.373905    0.138433    11.00000   -1.20000 
AFIX   0 
C5'   1    0.859440    0.449134    0.093809    11.00000    0.02438    0.02829 = 
         0.03413   -0.00485    0.00076    0.00413 
AFIX  23 
H5'1  2    0.906837    0.471356    0.169365    11.00000   -1.20000 
H5'2  2    0.933574    0.461292    0.024006    11.00000   -1.20000 
AFIX   0 
C6'   1    0.619293    0.531797    0.112186    11.00000    0.02384    0.02455 = 
         0.02317   -0.00353    0.00069   -0.00836 
AFIX  43 
H6'   2    0.694035    0.557010    0.165399    11.00000   -1.20000 
AFIX   0 
C7'   1    0.451469    0.553157    0.081051    11.00000    0.02294    0.02153 = 
         0.02725    0.00117    0.00343    0.00219 
C8'   1    0.342515    0.516811    0.004245    11.00000    0.02363    0.02742 = 
         0.03526    0.00081   -0.00258   -0.00272 
AFIX  43 
H8'   2    0.226985    0.531067   -0.015896    11.00000   -1.20000 
AFIX   0 
C9'   1    0.403277    0.458950   -0.043641    11.00000    0.02518    0.03157 = 
         0.03303   -0.00493   -0.00804   -0.00661 
AFIX  43 
H9'   2    0.328263    0.433986   -0.097114    11.00000   -1.20000 
AFIX   0 
C10'  1    0.644578    0.374119   -0.059674    11.00000    0.02882    0.03250 = 
         0.02636   -0.00896   -0.00109    0.00253 
AFIX  23 
H10D  2    0.735479    0.382560   -0.120747    11.00000   -1.20000 
H10E  2    0.550940    0.348037   -0.101094    11.00000   -1.20000 
AFIX   0 
C11'  1    0.763950    0.265312    0.031290    11.00000    0.02079    0.02893 = 
         0.03225   -0.00456    0.00499   -0.00327 
AFIX  23 
H11C  2    0.747640    0.241926    0.110386    11.00000   -1.20000 
H11D  2    0.677384    0.248086   -0.030928    11.00000   -1.20000 
AFIX   0 
C12'  1    0.969138    0.271107   -0.147531    11.00000    0.04156    0.02847 = 
         0.03084   -0.00498    0.01400   -0.00484 
AFIX 137 
H12D  2    1.087176    0.260215   -0.172800    11.00000   -1.50000 
H12E  2    0.951213    0.317821   -0.154752    11.00000   -1.50000 
H12F  2    0.883060    0.248617   -0.201628    11.00000   -1.50000 
AFIX   0 
C3B   1    1.078915    0.282718    0.078973    11.00000    0.02476    0.03739 = 
         0.03136   -0.00508   -0.00223    0.00337 
AFIX  13 
H3B1  2    1.050232    0.267580    0.164208    11.00000   -1.20000 
AFIX   0 
C4B   1    0.875673    0.376163    0.114450    11.00000    0.02603    0.03103 = 
         0.02362   -0.00397    0.00177    0.00017 
AFIX  13 
H4B1  2    0.869147    0.368946    0.206207    11.00000   -1.20000 
AFIX   0 
C5B   1    0.677301    0.473847    0.065653    11.00000    0.02125    0.02513 = 
         0.02678   -0.00032    0.00114   -0.00195 
C9B   1    0.570687    0.436983   -0.015032    11.00000    0.02754    0.02477 = 
         0.02508   -0.00027   -0.00263   -0.00162 
C10B  1    0.723895    0.337297    0.052287    11.00000    0.02109    0.02885 = 
         0.03053   -0.00623    0.00416   -0.00067 
AFIX  13 
H10F  2    0.630469    0.337474    0.114856    11.00000   -1.20000 
AFIX   0 
C11B  1    0.947355    0.250412   -0.013145    11.00000    0.01971    0.02862 = 
         0.02739   -0.00205    0.00414   -0.00325 
PART   0 
HKLF 4 
  
REM  dc27909/lt/MQ2072 in P2(1) 
REM R1 =  0.0444 for    4814 Fo > 4sig(Fo)  and  0.0677 for all    6242 data 
REM    367 parameters refined using      1 restraints 
  
END 
  
WGHT      0.0492      0.2393 
  
REM Highest difference peak  0.201,  deepest hole -0.164,  1-sigma level  0.037 
Q1    1   0.9849  0.1228  0.3235  11.00000  0.05    0.20 
Q2    1   0.9806  0.4937 -0.2313  11.00000  0.05    0.17 
Q3    1   0.7583  0.3482 -0.0330  11.00000  0.05    0.16 
Q4    1   0.2678  0.2065  0.6876  11.00000  0.05    0.16 
Q5    1  -0.3601  0.4525  0.3831  11.00000  0.05    0.15 
;
_shelx_res_checksum              26873
_shelx_fab_file
; 
    1    0    0     26.77     -0.02 
    2    0    0     24.85     -0.10 
    3    0    0      6.47     -0.04 
    4    0    0      7.22     -0.05 
    5    0    0      4.61     -0.01 
    6    0    0      1.99      0.11 
    7    0    0      2.27      0.06 
    8    0    0      1.47      0.03 
    9    0    0      1.26     -0.03 
    1    1    0      3.50      3.27 
    2    1    0     -0.01     -0.26 
    3    1    0      3.07     -2.39 
    4    1    0      0.28     -0.57 
    5    1    0      1.01     -0.67 
    6    1    0     -0.14      0.91 
    7    1    0     -0.52      1.48 
    8    1    0      0.35     -0.88 
    9    1    0     -0.10      0.24 
    0    2    0     59.87     38.20 
    1    2    0     20.12      1.32 
    2    2    0     12.88      5.19 
    3    2    0      3.90     -2.51 
    4    2    0      5.06      0.19 
    5    2    0      2.00      1.32 
    6    2    0      2.22     -0.75 
    7    2    0      1.09      1.02 
    8    2    0      1.64     -0.36 
    9    2    0      1.06      0.50 
    1    3    0      3.33      8.70 
    2    3    0      1.16     -0.12 
    3    3    0      3.08      2.75 
    4    3    0      1.81     -0.26 
    5    3    0      1.12      1.92 
    6    3    0     -0.57      1.18 
    7    3    0     -0.86      1.23 
    8    3    0     -0.01      0.39 
    9    3    0      0.65     -0.09 
    0    4    0     12.00     22.62 
    1    4    0      8.27     -1.16 
    2    4    0      2.34     -5.63 
    3    4    0      1.25     -6.96 
    4    4    0      3.25     -3.19 
    5    4    0     -0.45     -2.37 
    6    4    0      1.92     -0.73 
    7    4    0     -0.36     -0.59 
    8    4    0      1.39      0.08 
    9    4    0      0.07      0.60 
    1    5    0     -2.66      7.42 
    2    5    0      2.59      2.33 
    3    5    0     -0.75      2.34 
    4    5    0      2.99      2.09 
    5    5    0     -0.71      2.29 
    6    5    0     -1.04      1.19 
    7    5    0     -1.08      1.14 
    8    5    0     -0.79      0.47 
    9    5    0      0.92      0.66 
    0    6    0      4.26      4.33 
    1    6    0      2.11     -5.02 
    2    6    0      6.54     -8.34 
    3    6    0      2.69     -8.74 
    4    6    0      4.55     -4.85 
    5    6    0      1.86     -4.89 
    6    6    0      0.81     -0.82 
    7    6    0      0.47     -2.05 
    8    6    0      0.33      0.59 
    1    7    0     -3.86      1.88 
    2    7    0      0.95      4.60 
    3    7    0      0.11     -0.26 
    4    7    0      1.05      4.39 
    5    7    0     -0.13      0.07 
    6    7    0     -1.35      0.94 
    7    7    0     -0.66      0.36 
    8    7    0     -0.11     -0.12 
    0    8    0      2.82      8.06 
    1    8    0      2.84     -4.30 
    2    8    0      5.78      0.03 
    3    8    0      4.17     -4.83 
    4    8    0      4.63     -2.19 
    5    8    0      3.15     -1.64 
    6    8    0      0.58     -0.85 
    7    8    0      1.00     -0.74 
    8    8    0     -0.13      0.36 
    1    9    0     -0.85      0.12 
    2    9    0     -0.79      3.09 
    3    9    0      2.98      1.62 
    4    9    0     -1.05      3.24 
    5    9    0      2.82      0.33 
    6    9    0     -1.11      0.35 
    7    9    0      0.49      0.67 
    8    9    0      0.70      0.53 
    0   10    0     -6.82      9.01 
    1   10    0      0.31      0.98 
    2   10    0     -1.61      3.37 
    3   10    0      1.00     -0.39 
    4   10    0      1.73      0.97 
    5   10    0     -0.09      0.85 
    6   10    0      0.83     -0.17 
    7   10    0     -0.71     -0.24 
    8   10    0      0.50      0.07 
    1   11    0      0.24      2.00 
    2   11    0     -0.14      1.35 
    3   11    0      1.38      5.14 
    4   11    0     -0.12      1.33 
    5   11    0      2.67      2.67 
    6   11    0      0.30     -0.32 
    7   11    0      0.39      1.03 
    8   11    0      0.34      0.90 
    0   12    0     -8.91      0.64 
    1   12    0     -3.83      0.49 
    2   12    0     -3.64     -0.13 
    3   12    0     -1.16     -0.96 
    4   12    0     -0.52      1.39 
    5   12    0     -1.37     -0.94 
    6   12    0      0.39      0.19 
    7   12    0     -0.82     -2.08 
    8   12    0      0.78      0.03 
    1   13    0     -1.33      1.90 
    2   13    0      0.06      1.31 
    3   13    0     -2.17      3.18 
    4   13    0      0.95      1.42 
    5   13    0      0.53      2.07 
    6   13    0      1.43      0.02 
    7   13    0      0.46      0.19 
    0   14    0     -0.31     -2.71 
    1   14    0     -0.59     -2.03 
    2   14    0      1.55     -1.14 
    3   14    0      1.40     -1.12 
    4   14    0      0.18      0.82 
    5   14    0      0.86     -1.03 
    6   14    0     -0.09     -0.24 
    7   14    0      1.24     -1.55 
    1   15    0     -0.92     -0.47 
    2   15    0     -1.03      1.02 
    3   15    0     -0.88     -0.57 
    4   15    0     -0.38      1.33 
    5   15    0      0.42      0.56 
    6   15    0      0.50     -0.16 
    7   15    0      0.59      0.02 
    0   16    0      3.49      2.06 
    1   16    0      3.58     -0.61 
    2   16    0      3.77      2.36 
    3   16    0      2.56      1.04 
    4   16    0      1.25      1.07 
    5   16    0      0.79      0.91 
    6   16    0      0.05     -0.33 
    7   16    0      0.84      0.94 
    1   17    0      0.89     -0.75 
    2   17    0     -1.16     -0.81 
    3   17    0      1.18     -0.03 
    4   17    0     -0.71     -0.59 
    5   17    0      0.93      0.78 
    6   17    0      0.38     -1.40 
    0   18    0     -0.73      2.46 
    1   18    0      3.39      1.47 
    2   18    0      0.44      2.72 
    3   18    0      1.16      1.69 
    4   18    0      0.70      0.97 
    5   18    0     -0.59      0.27 
    6   18    0      0.15      0.12 
    1   19    0      0.51      0.14 
    2   19    0      0.72     -1.48 
    3   19    0     -0.23      0.81 
    4   19    0      0.98     -0.40 
    5   19    0      0.58      1.24 
    6   19    0      1.16     -0.83 
    0   20    0     -0.92     -2.24 
    1   20    0      0.90      0.88 
    2   20    0     -0.76     -0.77 
    3   20    0      0.17      0.37 
    4   20    0      0.07     -0.39 
    5   20    0      0.24     -0.97 
    1   21    0     -0.39     -0.28 
    2   21    0      1.01      0.29 
    3   21    0     -1.31     -0.51 
    4   21    0      0.41      1.28 
    5   21    0     -0.01      0.75 
    0   22    0      2.58     -2.14 
    1   22    0      0.78     -1.16 
    2   22    0      0.93     -1.47 
    3   22    0      0.60     -0.58 
    4   22    0      0.51     -0.93 
    1   23    0      0.03     -0.36 
    2   23    0     -0.58      1.03 
    3   23    0     -0.47     -0.77 
    0   24    0      1.62      0.17 
    1   24    0      1.37     -0.57 
    2   24    0      0.37     -0.18 
   -9    0    1      0.51      0.01 
   -8    0    1     -1.12      0.06 
   -7    0    1      2.30     -0.02 
   -6    0    1      0.83     -0.02 
   -5    0    1      0.44     -0.04 
   -4    0    1     -0.66     -0.02 
   -3    0    1     -2.30      0.05 
   -2    0    1     -2.60     -0.04 
   -1    0    1      0.64      0.01 
    0    0    1    -11.94      0.02 
    1    0    1     -4.82      0.05 
    2    0    1     -2.98     -0.02 
    3    0    1      3.65      0.04 
    4    0    1     -0.36     -0.22 
    5    0    1      1.71     -0.01 
    6    0    1     -0.97      0.00 
    7    0    1     -0.46      0.02 
    8    0    1      1.10      0.06 
    9    0    1     -0.29     -0.03 
   -9    1    1      0.19      0.67 
   -8    1    1      0.29      1.04 
   -7    1    1     -0.58      1.85 
   -6    1    1      0.74      2.32 
   -5    1    1     -1.31      4.01 
   -4    1    1      0.80      5.17 
   -3    1    1      1.18      4.64 
   -2    1    1     -1.66     15.67 
   -1    1    1      0.43     21.24 
    0    1    1    -21.62     77.68 
    1    1    1     -1.54     26.49 
    2    1    1     -5.96     22.47 
    3    1    1      0.59      7.50 
    4    1    1     -1.51      7.04 
    5    1    1     -0.99      3.82 
    6    1    1      0.21      2.04 
    7    1    1     -0.84      2.12 
    8    1    1      0.44      1.57 
    9    1    1     -0.60      1.67 
   -9    2    1      0.26     -0.11 
   -8    2    1     -0.13     -0.42 
   -7    2    1      1.86      1.00 
   -6    2    1      1.54     -0.14 
   -5    2    1      2.05     -1.15 
   -4    2    1      0.13     -1.60 
   -3    2    1      3.09     -5.11 
   -2    2    1     -0.89     -2.74 
   -1    2    1      9.84     -9.27 
    0    2    1     -6.81     -7.80 
    1    2    1     -3.05     -1.17 
    2    2    1     -0.93     -2.33 
    3    2    1      1.72      2.39 
    4    2    1      0.77     -0.22 
    5    2    1      0.27      1.22 
    6    2    1     -0.44     -0.85 
    7    2    1     -0.58     -0.28 
    8    2    1      0.29      0.34 
    9    2    1      0.15      0.12 
   -9    3    1      0.20      0.82 
   -8    3    1      0.45      1.15 
   -7    3    1     -0.26      0.20 
   -6    3    1      0.67      2.85 
   -5    3    1      0.10      0.24 
   -4    3    1      2.56      4.59 
   -3    3    1      5.70      1.02 
   -2    3    1      3.21      5.12 
   -1    3    1      2.37     12.56 
    0    3    1    -30.28     28.77 
    1    3    1     -2.54     16.00 
    2    3    1     -2.60      5.10 
    3    3    1      2.87      4.48 
    4    3    1      0.33      2.69 
    5    3    1      0.14      0.78 
    6    3    1      0.76      1.73 
    7    3    1     -0.63      0.31 
    8    3    1      0.38      1.84 
    9    3    1     -1.37      0.50 
   -9    4    1      0.55     -0.72 
   -8    4    1      0.91      0.54 
   -7    4    1      1.59      1.19 
   -6    4    1      2.03      0.95 
   -5    4    1      3.65      0.63 
   -4    4    1      1.40     -2.16 
   -3    4    1      6.58      0.16 
   -2    4    1      1.43     -3.31 
   -1    4    1     15.60      0.66 
    0    4    1     -0.10     -6.71 
    1    4    1     -1.99      0.25 
    2    4    1     -0.29      0.28 
    3    4    1     -0.26      1.55 
    4    4    1      0.10      2.58 
    5    4    1     -1.46      0.51 
    6    4    1     -0.17     -0.50 
    7    4    1     -0.98     -0.53 
    8    4    1     -0.56     -0.27 
    9    4    1     -0.05      0.97 
   -9    5    1      0.06      0.34 
   -8    5    1     -0.10      0.95 
   -7    5    1      1.55     -0.09 
   -6    5    1     -0.18      1.66 
   -5    5    1      4.28      0.43 
   -4    5    1      3.72      4.09 
   -3    5    1     10.03      1.10 
   -2    5    1      9.66      3.95 
   -1    5    1      5.08      4.54 
    0    5    1     -8.25      4.46 
    1    5    1      0.28      4.92 
    2    5    1      8.19      3.18 
    3    5    1      5.51      2.51 
    4    5    1      5.13      2.88 
    5    5    1      3.75      0.70 
    6    5    1      1.44      1.00 
    7    5    1      1.39      0.01 
    8    5    1     -0.28      0.88 
    9    5    1     -0.58     -0.73 
   -8    6    1     -0.04      0.82 
   -7    6    1      0.93      1.49 
   -6    6    1      1.00      1.63 
   -5    6    1      1.35      2.21 
   -4    6    1      2.72     -1.64 
   -3    6    1      1.36      2.97 
   -2    6    1      3.22     -2.73 
   -1    6    1      5.49      7.97 
    0    6    1      0.85     -3.20 
    1    6    1     -3.16     -0.21 
    2    6    1     -4.10      1.33 
    3    6    1     -0.47      0.68 
    4    6    1     -4.10      2.80 
    5    6    1     -1.04      0.09 
    6    6    1     -1.01     -0.38 
    7    6    1     -0.58     -0.58 
    8    6    1     -0.27     -0.47 
   -8    7    1     -0.56      0.23 
   -7    7    1      1.57      0.84 
   -6    7    1      0.08      0.02 
   -5    7    1      3.33      2.79 
   -4    7    1      3.29      3.62 
   -3    7    1      8.15      4.14 
   -2    7    1      5.42      6.08 
   -1    7    1      5.76      2.79 
    0    7    1     -3.66      4.60 
    1    7    1      3.92      1.71 
    2    7    1      4.08      7.45 
    3    7    1      5.51      3.14 
    4    7    1      4.67      5.25 
    5    7    1      3.16      3.12 
    6    7    1      1.63      0.98 
    7    7    1      1.18      1.15 
    8    7    1     -0.26     -0.05 
   -8    8    1     -0.33     -0.74 
   -7    8    1      0.22      0.56 
   -6    8    1      0.02      0.90 
   -5    8    1     -1.17     -0.47 
   -4    8    1      2.52     -0.35 
   -3    8    1     -0.89     -1.52 
   -2    8    1      3.00     -1.27 
   -1    8    1     -1.75      3.16 
    0    8    1     -0.18     -2.46 
    1    8    1     -2.43     -1.91 
    2    8    1     -5.24     -1.65 
    3    8    1     -1.07      1.34 
    4    8    1     -5.50     -0.96 
    5    8    1     -0.54      1.75 
    6    8    1     -1.40     -1.25 
    7    8    1     -0.38      0.44 
    8    8    1     -0.31      0.09 
   -8    9    1     -0.39      0.20 
   -7    9    1      0.30      0.02 
   -6    9    1      0.48      0.08 
   -5    9    1     -0.16      0.82 
   -4    9    1      0.94      2.59 
   -3    9    1      2.29      3.21 
   -2    9    1     -0.74      2.15 
   -1    9    1      1.33      2.36 
    0    9    1     -8.73     -1.47 
    1    9    1      1.17      2.12 
    2    9    1     -3.24      2.14 
    3    9    1      1.52      2.31 
    4    9    1      0.58      3.70 
    5    9    1     -0.64      1.96 
    6    9    1      0.68      1.29 
    7    9    1     -0.23      0.28 
    8    9    1      0.13      0.28 
   -8   10    1      0.90     -1.28 
   -7   10    1      0.89     -0.34 
   -6   10    1     -0.14     -0.42 
   -5   10    1      0.87     -2.97 
   -4   10    1      1.31     -0.92 
   -3   10    1      3.81     -3.30 
   -2   10    1      1.98     -1.45 
   -1   10    1      1.13     -1.06 
    0   10    1      0.85     -2.62 
    1   10    1     -0.62     -1.18 
    2   10    1     -1.90     -2.67 
    3   10    1     -2.97      1.85 
    4   10    1     -2.57     -2.40 
    5   10    1     -1.96      2.87 
    6   10    1     -0.31     -1.11 
    7   10    1     -1.07      0.60 
    8   10    1     -0.70      0.01 
   -8   11    1     -0.44      0.44 
   -7   11    1      1.29     -1.39 
   -6   11    1     -0.32      0.40 
   -5   11    1      0.40     -1.84 
   -4   11    1     -1.64      0.63 
   -3   11    1      0.34     -0.37 
   -2   11    1     -1.38     -2.15 
   -1   11    1     -1.46     -2.14 
    0   11    1     -4.63     -8.63 
    1   11    1     -1.86     -2.39 
    2   11    1     -1.77     -4.33 
    3   11    1     -0.08     -1.25 
    4   11    1     -0.79      0.15 
    5   11    1     -0.70     -1.02 
    6   11    1      0.11      1.06 
    7   11    1      0.89     -0.87 
    8   11    1      0.27      1.12 
   -8   12    1      1.07     -0.41 
   -7   12    1      0.70     -0.25 
   -6   12    1      0.01     -1.41 
   -5   12    1      2.32     -1.12 
   -4   12    1      1.51     -1.94 
   -3   12    1      5.31      1.65 
   -2   12    1      2.65     -0.88 
   -1   12    1      3.97      2.01 
    0   12    1      2.31     -0.52 
    1   12    1     -0.46      0.72 
    2   12    1      0.40     -0.43 
    3   12    1     -3.64      0.35 
    4   12    1     -0.68     -0.28 
    5   12    1     -2.48      1.59 
    6   12    1      0.25      0.87 
    7   12    1     -0.47      0.11 
    8   12    1     -0.38     -0.03 
   -7   13    1      2.44      0.24 
   -6   13    1     -0.58     -0.53 
   -5   13    1      1.67      0.05 
   -4   13    1     -2.07     -0.79 
   -3   13    1      1.21      0.37 
   -2   13    1      0.10     -0.59 
   -1   13    1      0.92     -2.39 
    0   13    1      2.16     -4.52 
    1   13    1      0.76     -3.34 
    2   13    1      2.45     -1.62 
    3   13    1      1.25     -0.79 
    4   13    1      0.20      0.21 
    5   13    1      0.85     -0.38 
    6   13    1      0.41      0.76 
    7   13    1      1.88      0.39 
   -7   14    1     -0.10     -0.65 
   -6   14    1     -0.23     -1.17 
   -5   14    1      0.61      0.12 
   -4   14    1      1.67     -0.80 
   -3   14    1      0.17      3.09 
   -2   14    1      2.23      1.33 
   -1   14    1      0.12      3.94 
    0   14    1      1.17      1.42 
    1   14    1     -1.13      0.86 
    2   14    1     -0.38      0.75 
    3   14    1     -1.63     -0.65 
    4   14    1     -1.61      0.35 
    5   14    1     -1.36      0.75 
    6   14    1     -0.76      1.30 
    7   14    1      0.18      0.42 
   -7   15    1      0.02      1.70 
   -6   15    1      0.12     -0.91 
   -5   15    1     -0.49      1.69 
   -4   15    1     -0.92     -0.16 
   -3   15    1     -0.33      2.60 
   -2   15    1     -1.25      3.00 
   -1   15    1      1.26      2.01 
    0   15    1      0.50      2.87 
    1   15    1      1.71      1.03 
    2   15    1      0.27      3.83 
    3   15    1      0.36      1.53 
    4   15    1     -0.64      1.94 
    5   15    1     -0.17      0.60 
    6   15    1      0.61      0.70 
    7   15    1      0.23      1.10 
   -7   16    1      0.08     -0.57 
   -6   16    1     -1.15     -0.84 
   -5   16    1     -0.04     -0.55 
   -4   16    1      0.00      0.30 
   -3   16    1     -1.52     -0.94 
   -2   16    1     -0.02      2.02 
   -1   16    1     -2.17      0.05 
    0   16    1     -0.20      0.74 
    1   16    1     -0.34      0.03 
    2   16    1     -0.47     -0.42 
    3   16    1     -0.30      0.10 
    4   16    1     -0.91     -1.39 
    5   16    1     -0.99      0.90 
    6   16    1     -0.03     -0.17 
    7   16    1      0.13      0.20 
   -6   17    1      0.15     -0.42 
   -5   17    1     -1.22     -0.10 
   -4   17    1     -0.51      1.13 
   -3   17    1     -1.83      1.76 
   -2   17    1     -3.18      2.28 
   -1   17    1     -0.56      3.85 
    0   17    1     -3.10      1.79 
    1   17    1     -0.02      3.53 
    2   17    1     -2.95      2.52 
    3   17    1     -0.92      1.88 
    4   17    1     -1.72      1.13 
    5   17    1     -0.75     -0.50 
    6   17    1      0.17      0.70 
   -6   18    1     -0.81     -1.26 
   -5   18    1      0.50     -0.76 
   -4   18    1     -0.51     -0.89 
   -3   18    1      0.83     -1.65 
   -2   18    1     -1.43      0.12 
   -1   18    1      0.22     -1.54 
    0   18    1      0.21     -0.48 
    1   18    1      0.68      0.17 
    2   18    1      1.30     -0.23 
    3   18    1     -0.43      0.04 
    4   18    1      1.13     -0.54 
    5   18    1     -1.33      0.88 
    6   18    1      1.19      0.38 
   -6   19    1     -0.25     -0.15 
   -5   19    1      0.76     -0.27 
   -4   19    1     -0.41      0.94 
   -3   19    1     -0.78      0.27 
   -2   19    1     -1.43     -0.69 
   -1   19    1     -1.22      2.32 
    0   19    1     -0.16     -1.34 
    1   19    1     -1.26      2.11 
    2   19    1     -0.66     -0.40 
    3   19    1     -1.16      0.87 
    4   19    1     -0.30     -0.56 
    5   19    1      0.36     -0.82 
   -5   20    1      0.59     -0.44 
   -4   20    1      1.25     -0.84 
   -3   20    1      0.61      0.62 
   -2   20    1     -0.17     -1.08 
   -1   20    1      0.60      0.34 
    0   20    1      1.07     -0.13 
    1   20    1      0.54      0.14 
    2   20    1      1.17      1.26 
    3   20    1      0.05     -0.98 
    4   20    1      0.25      0.91 
    5   20    1     -1.26      0.17 
   -5   21    1      0.83      1.06 
   -4   21    1      0.44      0.51 
   -3   21    1      0.55      0.62 
   -2   21    1      1.30     -0.41 
   -1   21    1      0.19      1.09 
    0   21    1      2.67      1.23 
    1   21    1      0.61      0.29 
    2   21    1      1.73      0.81 
    3   21    1      0.21      0.05 
    4   21    1      1.42     -0.13 
   -4   22    1      1.41      0.66 
   -3   22    1     -0.83      0.75 
   -2   22    1      0.80      0.12 
   -1   22    1     -0.71      0.18 
    0   22    1      0.24      0.80 
    1   22    1      0.18     -0.35 
    2   22    1     -0.69      0.65 
    3   22    1      0.66     -1.00 
    4   22    1     -0.67     -0.14 
   -3   23    1      0.03      0.87 
   -2   23    1      0.70      0.69 
   -1   23    1      0.53      1.38 
    0   23    1      0.54      2.63 
    1   23    1      1.76      1.31 
    2   23    1      0.53      1.18 
    3   23    1      0.88      0.58 
   -2   24    1      0.33      0.69 
   -1   24    1     -0.13     -0.82 
    0   24    1     -0.79      0.24 
    1   24    1      0.02     -0.40 
    2   24    1     -0.90     -0.86 
   -9    0    2     -0.18     -0.03 
   -8    0    2     -0.15      0.05 
   -7    0    2     -1.96     -0.01 
   -6    0    2     -1.84      0.06 
   -5    0    2     -5.25     -0.06 
   -4    0    2     -2.97     -0.04 
   -3    0    2     -5.19     -0.05 
   -2    0    2     -9.26      0.03 
   -1    0    2    -18.55      0.05 
    0    0    2    -63.63      0.45 
    1    0    2    -25.62      0.00 
    2    0    2    -22.54      0.09 
    3    0    2     -9.29     -0.12 
    4    0    2     -7.69     -0.04 
    5    0    2     -3.87      0.00 
    6    0    2     -2.30     -0.05 
    7    0    2     -2.68      0.02 
    8    0    2     -1.45      0.02 
    9    0    2     -1.75      0.03 
   -9    1    2     -0.06      0.32 
   -8    1    2      0.49     -0.71 
   -7    1    2     -0.50      2.14 
   -6    1    2      0.68      0.63 
   -5    1    2      0.48      2.47 
   -4    1    2      1.23      0.40 
   -3    1    2      3.81      1.37 
   -2    1    2      2.67     -2.16 
   -1    1    2      8.33      4.00 
    0    1    2      7.32    -14.73 
    1    1    2      4.57     -5.72 
    2    1    2      2.92     -3.93 
    3    1    2     -0.04      2.32 
    4    1    2      1.37     -0.49 
    5    1    2     -0.42      0.95 
    6    1    2      1.21     -1.27 
    7    1    2     -0.17      0.32 
    8    1    2     -0.11      0.42 
    9    1    2      0.03     -0.14 
   -9    2    2     -0.73      0.78 
   -8    2    2     -0.47      0.91 
   -7    2    2     -1.09     -0.25 
   -6    2    2     -2.78      1.35 
   -5    2    2     -2.53     -1.38 
   -4    2    2     -4.48      3.58 
   -3    2    2     -2.97      3.36 
   -2    2    2     -6.52      4.41 
   -1    2    2    -15.34      3.17 
    0    2    2    -40.60    -21.13 
    1    2    2    -21.55     -1.75 
    2    2    2    -11.65     -6.11 
    3    2    2     -8.18      0.86 
    4    2    2     -4.04     -2.07 
    5    2    2     -2.47     -0.38 
    6    2    2     -1.87      0.16 
    7    2    2     -1.55     -1.18 
    8    2    2     -1.79      0.52 
    9    2    2     -1.01     -1.43 
   -9    3    2      0.33      0.27 
   -8    3    2      0.23      0.88 
   -7    3    2     -0.82      1.74 
   -6    3    2      0.24      2.34 
   -5    3    2      0.01      3.99 
   -4    3    2      1.70      2.15 
   -3    3    2      3.04      8.16 
   -2    3    2      4.35      1.55 
   -1    3    2      6.98     17.94 
    0    3    2     12.38     -3.25 
    1    3    2      4.58      2.36 
    2    3    2      3.45      0.13 
    3    3    2     -0.69      2.36 
    4    3    2     -0.26      1.50 
    5    3    2     -0.35     -0.42 
    6    3    2      1.29      0.58 
    7    3    2      0.08     -0.66 
    8    3    2     -0.17     -0.22 
    9    3    2     -0.42      0.01 
   -9    4    2     -1.19      0.36 
   -8    4    2     -1.14      0.83 
   -7    4    2     -0.16      0.87 
   -6    4    2     -2.81      0.12 
   -5    4    2     -0.02      1.89 
   -4    4    2     -4.99      3.09 
   -3    4    2     -0.76      8.08 
   -2    4    2     -3.60      8.66 
   -1    4    2     -8.53      4.60 
    0    4    2     -9.78    -11.43 
    1    4    2    -11.70     -2.83 
    2    4    2     -1.52      3.34 
    3    4    2     -5.21      1.59 
    4    4    2     -0.92      2.71 
    5    4    2     -0.91      1.74 
    6    4    2     -0.98      1.08 
    7    4    2     -0.16      0.06 
    8    4    2     -1.33      0.06 
   -8    5    2     -1.05      0.72 
   -7    5    2     -1.27      1.65 
   -6    5    2     -1.44      1.82 
   -5    5    2     -2.17      3.30 
   -4    5    2      0.83      2.19 
   -3    5    2     -3.49      5.93 
   -2    5    2      3.26      3.04 
   -1    5    2     -7.47     13.68 
    0    5    2      7.02      2.40 
    1    5    2     -1.57      1.40 
    2    5    2     -0.31     -1.13 
    3    5    2     -1.55      0.91 
    4    5    2     -3.50     -1.53 
    5    5    2     -0.05     -0.94 
    6    5    2     -0.37      0.06 
    7    5    2      0.58     -0.66 
    8    5    2      0.01     -0.62 
   -8    6    2     -0.85     -0.16 
   -7    6    2     -0.41      1.48 
   -6    6    2     -0.35     -0.74 
   -5    6    2     -1.52      3.30 
   -4    6    2     -2.45      2.44 
   -3    6    2     -2.85      9.18 
   -2    6    2     -3.52      8.26 
   -1    6    2     -3.84      5.02 
    0    6    2     -3.59     -0.45 
    1    6    2     -3.12     -0.10 
    2    6    2     -4.96      7.00 
    3    6    2     -2.45      3.01 
    4    6    2     -3.23      5.96 
    5    6    2     -1.88      3.11 
    6    6    2     -0.80      1.93 
    7    6    2     -0.77      1.07 
    8    6    2     -0.26      0.09 
   -8    7    2     -0.20     -0.69 
   -7    7    2     -1.46      0.75 
   -6    7    2     -0.96     -0.09 
   -5    7    2     -1.88     -0.30 
   -4    7    2      0.73      1.17 
   -3    7    2     -2.07     -0.81 
   -2    7    2      2.28      2.73 
   -1    7    2     -7.81      0.01 
    0    7    2      3.58      0.86 
    1    7    2     -0.47     -3.58 
    2    7    2      0.39     -5.28 
    3    7    2     -1.00     -1.27 
    4    7    2     -1.11     -6.08 
    5    7    2     -0.78     -0.97 
    6    7    2      0.24     -1.82 
    7    7    2     -0.15     -0.04 
    8    7    2      0.20     -0.53 
   -8    8    2     -0.22     -0.37 
   -7    8    2     -0.29      0.51 
   -6    8    2      0.91      0.38 
   -5    8    2     -0.97      0.26 
   -4    8    2     -1.05      2.79 
   -3    8    2     -3.94      4.37 
   -2    8    2     -2.71      4.48 
   -1    8    2     -2.92      2.85 
    0    8    2     -2.29     -3.50 
    1    8    2     -1.78      1.90 
    2    8    2     -4.98      0.30 
    3    8    2     -2.01      2.47 
    4    8    2     -4.52      3.19 
    5    8    2     -2.52      0.60 
    6    8    2     -1.27      1.18 
    7    8    2     -0.83     -0.22 
    8    8    2     -0.24      0.30 
   -8    9    2      1.54     -0.02 
   -7    9    2     -0.50      0.63 
   -6    9    2      0.74     -0.22 
   -5    9    2      1.41     -0.99 
   -4    9    2      1.74      0.38 
   -3    9    2      3.24      0.28 
   -2    9    2      2.37      1.68 
   -1    9    2      0.07     -1.87 
    0    9    2      4.10      0.29 
    1    9    2      2.92     -2.39 
    2    9    2      3.71     -4.21 
    3    9    2     -0.25     -2.03 
    4    9    2      3.00     -4.72 
    5    9    2     -1.69     -1.49 
    6    9    2      1.59     -1.35 
    7    9    2     -0.81     -0.62 
    8    9    2      0.30     -0.46 
   -8   10    2     -0.40     -0.46 
   -7   10    2      1.07      0.24 
   -6   10    2     -0.18      0.31 
   -5   10    2      2.19     -0.47 
   -4   10    2     -1.39      0.82 
   -3   10    2     -0.87      0.53 
   -2   10    2     -0.74      1.16 
   -1   10    2     -0.21     -0.91 
    0   10    2      4.14     -5.07 
    1   10    2     -0.06     -1.12 
    2   10    2      1.61     -2.67 
    3   10    2      0.02     -0.16 
    4   10    2     -1.63      0.08 
    5   10    2     -0.32     -1.25 
    6   10    2     -1.20      0.25 
    7   10    2      0.41     -0.07 
    8   10    2     -0.98      0.42 
   -8   11    2      1.21      1.30 
   -7   11    2     -0.13      1.02 
   -6   11    2      1.45      0.44 
   -5   11    2      1.81      1.31 
   -4   11    2      2.97      0.96 
   -3   11    2      1.11      5.24 
   -2   11    2      2.41      2.54 
   -1   11    2     -0.09      4.06 
    0   11    2      2.73      2.98 
    1   11    2      0.83      1.35 
    2   11    2      2.68      0.40 
    3   11    2     -0.74     -1.79 
    4   11    2      2.07     -0.91 
    5   11    2     -1.58     -1.83 
    6   11    2      0.26      0.10 
    7   11    2     -0.06     -0.73 
    8   11    2      0.25     -0.32 
   -8   12    2     -0.02     -0.69 
   -7   12    2      0.94      1.72 
   -6   12    2      0.16     -0.95 
   -5   12    2      1.47      1.48 
   -4   12    2     -0.23     -2.15 
   -3   12    2      0.24      0.68 
   -2   12    2     -0.03     -0.55 
   -1   12    2      2.28     -0.76 
    0   12    2      5.56     -0.29 
    1   12    2      3.38     -1.27 
    2   12    2      3.57      1.37 
    3   12    2      1.71      0.05 
    4   12    2     -0.02      0.78 
    5   12    2      0.31     -0.10 
    6   12    2     -1.20      0.40 
    7   12    2     -0.23      1.35 
   -7   13    2      0.13      0.23 
   -6   13    2      1.30      0.14 
   -5   13    2      0.05      1.09 
   -4   13    2      2.19      1.81 
   -3   13    2     -3.85      2.75 
   -2   13    2     -0.27      3.28 
   -1   13    2     -5.58      2.81 
    0   13    2     -1.33      3.14 
    1   13    2     -2.95      0.32 
    2   13    2     -0.99      1.27 
    3   13    2     -1.15     -1.84 
    4   13    2     -0.46     -0.91 
    5   13    2     -1.12     -1.36 
    6   13    2     -1.70     -0.64 
    7   13    2      0.02      0.26 
   -7   14    2     -1.15      1.16 
   -6   14    2      1.36     -0.39 
   -5   14    2     -1.52      0.32 
   -4   14    2      1.24     -1.77 
   -3   14    2     -1.70      0.05 
   -2   14    2     -1.33     -1.24 
   -1   14    2      0.09      0.49 
    0   14    2     -0.24      1.62 
    1   14    2      2.03      0.90 
    2   14    2     -1.73      2.58 
    3   14    2      0.52      0.54 
    4   14    2     -1.96      0.80 
    5   14    2     -0.37     -0.25 
    6   14    2     -1.11      0.57 
    7   14    2     -1.16      0.69 
   -7   15    2      0.66     -0.24 
   -6   15    2      1.28     -0.83 
   -5   15    2      0.07     -0.22 
   -4   15    2      0.51      0.65 
   -3   15    2     -1.44     -1.91 
   -2   15    2     -2.32      1.15 
   -1   15    2     -3.44     -2.74 
    0   15    2     -2.19      0.50 
    1   15    2     -1.51     -1.98 
    2   15    2     -1.33     -0.55 
    3   15    2     -0.31     -1.61 
    4   15    2      0.63     -1.96 
    5   15    2     -0.78     -1.05 
    6   15    2     -0.70     -1.53 
    7   15    2     -0.28      0.39 
   -7   16    2     -0.99     -1.12 
   -6   16    2      0.93      0.42 
   -5   16    2     -0.78     -1.68 
   -4   16    2     -0.08      0.01 
   -3   16    2     -1.75     -1.47 
   -2   16    2     -2.51     -1.97 
   -1   16    2     -2.46      0.07 
    0   16    2     -3.16     -1.42 
    1   16    2     -1.37      1.43 
    2   16    2     -3.90     -1.18 
    3   16    2     -0.81      0.49 
    4   16    2     -2.19     -1.21 
    5   16    2      0.49     -0.76 
    6   16    2     -0.88      0.44 
   -6   17    2      1.65     -0.59 
   -5   17    2      0.68     -0.09 
   -4   17    2      1.00     -0.52 
   -3   17    2      2.38     -0.49 
   -2   17    2     -0.83     -1.09 
   -1   17    2      1.57     -1.47 
    0   17    2     -0.08     -0.32 
    1   17    2      0.74     -0.10 
    2   17    2      0.08     -0.15 
    3   17    2      0.48     -0.49 
    4   17    2      1.75      0.13 
    5   17    2     -0.56     -0.74 
    6   17    2      0.30      0.01 
   -6   18    2      0.16      0.00 
   -5   18    2      0.55     -0.10 
   -4   18    2     -1.41     -0.25 
   -3   18    2     -0.30     -0.87 
   -2   18    2     -0.98     -2.24 
   -1   18    2     -2.67     -0.45 
    0   18    2     -0.67     -1.94 
    1   18    2     -2.87      0.14 
    2   18    2     -1.19     -1.76 
    3   18    2     -1.69     -0.38 
    4   18    2      0.20     -1.18 
    5   18    2      1.17     -0.26 
    6   18    2     -0.55     -0.07 
   -5   19    2      0.61      0.42 
   -4   19    2      1.33      1.00 
   -3   19    2      1.03      1.63 
   -2   19    2      1.17     -0.28 
   -1   19    2      0.56      1.43 
    0   19    2      0.90      1.22 
    1   19    2     -0.13      1.47 
    2   19    2     -0.26      1.41 
    3   19    2      0.47      0.37 
    4   19    2     -0.01      1.54 
    5   19    2     -0.59     -0.60 
   -5   20    2     -0.66      1.11 
   -4   20    2     -0.75     -0.26 
   -3   20    2     -0.43      0.62 
   -2   20    2      0.87     -0.14 
   -1   20    2     -1.87     -0.03 
    0   20    2     -0.31      1.16 
    1   20    2     -1.28     -0.07 
    2   20    2     -0.83      0.97 
    3   20    2     -0.38     -0.73 
    4   20    2      0.93      1.20 
    5   20    2      0.90      0.50 
   -4   21    2     -0.39      1.71 
   -3   21    2     -0.93      0.21 
   -2   21    2      0.30      0.95 
   -1   21    2     -1.05     -0.09 
    0   21    2     -0.75      1.42 
    1   21    2     -0.35      0.37 
    2   21    2     -1.19      0.86 
    3   21    2      0.60      0.36 
    4   21    2     -0.54      0.54 
   -4   22    2     -0.51      0.40 
   -3   22    2     -1.21      0.36 
   -2   22    2     -0.06      1.13 
   -1   22    2     -1.71      0.32 
    0   22    2     -2.53      1.26 
    1   22    2     -0.89      1.72 
    2   22    2     -2.05      0.85 
    3   22    2      0.17      0.92 
    4   22    2     -0.49      1.55 
   -3   23    2     -0.30     -0.68 
   -2   23    2     -0.56      0.37 
   -1   23    2      0.53     -0.95 
    0   23    2     -1.08     -0.77 
    1   23    2      0.65     -0.23 
    2   23    2     -0.26     -0.76 
    3   23    2      0.73      0.10 
   -2   24    2     -0.32      0.07 
   -1   24    2     -0.85     -0.10 
    0   24    2     -1.48     -0.39 
    1   24    2     -1.56      1.29 
    2   24    2     -0.38     -0.10 
   -9    0    3     -0.11     -0.01 
   -8    0    3      0.76      0.04 
   -7    0    3     -2.02      0.05 
   -6    0    3      0.59     -0.01 
   -5    0    3     -3.22      0.01 
   -4    0    3     -0.74      0.03 
   -3    0    3     -1.61     -0.02 
   -2    0    3      1.52      0.01 
   -1    0    3     -0.63     -0.06 
    0    0    3     14.47     -0.06 
    1    0    3      8.57     -0.10 
    2    0    3      4.51     -0.02 
    3    0    3     -0.35     -0.03 
    4    0    3      1.23      0.37 
    5    0    3     -0.76     -0.07 
    6    0    3      2.57      0.07 
    7    0    3     -1.07     -0.01 
    8    0    3      0.79      0.07 
   -9    1    3     -0.61     -0.18 
   -8    1    3     -0.75      0.36 
   -7    1    3     -0.18     -1.49 
   -6    1    3     -1.35     -1.43 
   -5    1    3      0.99     -4.59 
   -4    1    3     -3.23     -1.83 
   -3    1    3     -1.64     -4.84 
   -2    1    3     -4.83     -2.23 
   -1    1    3     -2.39    -14.98 
    0    1    3      6.26    -35.38 
    1    1    3     -0.21    -20.26 
    2    1    3      3.12    -14.19 
    3    1    3     -0.59     -9.25 
    4    1    3      1.85     -5.83 
    5    1    3     -0.24     -2.60 
    6    1    3      0.14     -2.06 
    7    1    3      0.62     -2.35 
    8    1    3     -0.09     -1.69 
   -9    2    3      0.08     -0.01 
   -8    2    3     -0.26      0.73 
   -7    2    3     -1.50     -0.61 
   -6    2    3     -1.25      1.48 
   -5    2    3     -3.46      0.10 
   -4    2    3     -2.43      1.84 
   -3    2    3     -5.66      4.06 
   -2    2    3     -1.30      4.52 
   -1    2    3    -10.76     11.04 
    0    2    3      6.95     11.77 
    1    2    3      0.77      9.12 
    2    2    3      1.38      4.72 
    3    2    3     -1.96      1.75 
    4    2    3     -1.03      1.72 
    5    2    3     -0.07     -0.02 
    6    2    3      0.45      2.40 
    7    2    3      0.07     -0.49 
    8    2    3      0.47      0.38 
   -9    3    3     -0.83     -1.24 
   -8    3    3     -1.56     -0.67 
   -7    3    3     -0.84     -1.04 
   -6    3    3     -1.56     -2.92 
   -5    3    3      0.03     -1.41 
   -4    3    3     -4.41     -5.29 
   -3    3    3     -5.11     -2.64 
   -2    3    3     -9.25     -4.20 
   -1    3    3     -4.23    -11.92 
    0    3    3      8.20    -16.16 
    1    3    3      1.29    -16.48 
    2    3    3      0.73     -4.06 
    3    3    3     -0.50     -8.43 
    4    3    3      0.58     -1.14 
    5    3    3     -0.99     -1.97 
    6    3    3     -0.30     -1.18 
    7    3    3      0.82     -1.25 
    8    3    3      0.17     -1.55 
   -8    4    3     -1.14     -0.36 
   -7    4    3     -1.44     -0.45 
   -6    4    3     -2.65     -0.30 
   -5    4    3     -3.76     -0.54 
   -4    4    3     -3.29      0.45 
   -3    4    3     -8.21     -0.35 
   -2    4    3     -4.09      3.75 
   -1    4    3    -17.88      0.46 
    0    4    3     -2.75     10.00 
    1    4    3     -5.77      2.91 
    2    4    3     -1.17      2.40 
    3    4    3     -2.95     -0.06 
    4    4    3     -1.34     -1.93 
    5    4    3      0.58      0.34 
    6    4    3     -1.15      0.39 
    7    4    3      0.88      0.48 
    8    4    3      0.35     -0.25 
   -8    5    3     -0.55     -1.28 
   -7    5    3     -0.99     -0.68 
   -6    5    3      0.53     -1.60 
   -5    5    3     -2.12     -0.90 
   -4    5    3     -1.36     -3.29 
   -3    5    3     -7.38     -2.26 
   -2    5    3     -7.78     -2.93 
   -1    5    3     -3.38     -6.54 
    0    5    3      0.56     -4.31 
    1    5    3      3.00     -8.09 
    2    5    3     -5.69     -2.33 
    3    5    3      0.18     -4.50 
    4    5    3     -4.30     -0.64 
    5    5    3     -1.96     -1.36 
    6    5    3     -1.40     -0.62 
    7    5    3     -0.22     -0.73 
    8    5    3      0.04     -0.47 
   -8    6    3      0.11     -0.80 
   -7    6    3     -1.43     -1.01 
   -6    6    3     -0.53     -1.15 
   -5    6    3     -1.88     -1.66 
   -4    6    3     -1.06     -0.17 
   -3    6    3     -2.47     -3.53 
   -2    6    3     -3.44      2.12 
   -1    6    3     -6.74     -8.81 
    0    6    3     -3.40      4.34 
    1    6    3      0.05     -2.30 
    2    6    3      2.23     -0.29 
    3    6    3     -0.17     -1.45 
    4    6    3      3.85     -3.20 
    5    6    3      0.95     -0.20 
    6    6    3      1.17     -0.83 
    7    6    3     -0.05      0.38 
    8    6    3      0.84     -0.30 
   -8    7    3      0.36     -0.29 
   -7    7    3     -0.40     -0.23 
   -6    7    3      0.29      1.17 
   -5    7    3     -0.41     -0.96 
   -4    7    3     -2.19      0.89 
   -3    7    3     -5.13     -3.35 
   -2    7    3     -6.87     -0.47 
   -1    7    3     -2.37     -3.22 
    0    7    3     -0.98     -2.23 
    1    7    3      0.60     -1.85 
    2    7    3     -3.49     -4.38 
    3    7    3     -1.19     -1.12 
    4    7    3     -4.77     -2.98 
    5    7    3     -1.58     -1.58 
    6    7    3     -1.32     -0.83 
    7    7    3      0.03     -0.97 
    8    7    3     -0.49     -0.13 
   -8    8    3      0.64      0.73 
   -7    8    3     -0.88     -1.12 
   -6    8    3      0.56      0.73 
   -5    8    3      0.64     -0.37 
   -4    8    3      0.56      1.61 
   -3    8    3      1.64      0.80 
   -2    8    3     -1.69      2.09 
   -1    8    3      2.58     -3.56 
    0    8    3     -0.79      3.31 
    1    8    3      4.22      1.63 
    2    8    3      5.08      2.11 
    3    8    3      2.31      0.19 
    4    8    3      6.11      1.33 
    5    8    3      1.65     -0.66 
    6    8    3      2.10      1.29 
    7    8    3     -0.09     -0.73 
    8    8    3      0.55      0.45 
   -8    9    3      0.13     -0.03 
   -7    9    3      0.34      0.42 
   -6    9    3     -0.92      0.68 
   -5    9    3      1.38      1.86 
   -4    9    3     -3.52      0.29 
   -3    9    3     -1.22     -1.49 
   -2    9    3     -5.91     -0.78 
   -1    9    3     -0.06     -1.34 
    0    9    3      1.29      0.52 
    1    9    3     -0.09     -0.55 
    2    9    3      1.04     -1.10 
    3    9    3     -0.84     -0.47 
    4    9    3     -1.56     -2.57 
    5    9    3      0.23     -1.18 
    6    9    3     -0.25     -0.82 
    7    9    3      0.63     -0.16 
    8    9    3     -0.48     -0.65 
   -8   10    3     -0.68      1.44 
   -7   10    3     -1.00     -0.62 
   -6   10    3     -0.64      1.63 
   -5   10    3      0.04      1.37 
   -4   10    3     -0.12      3.27 
   -3   10    3     -2.24      3.27 
   -2   10    3     -1.63      2.94 
   -1   10    3     -1.11      1.54 
    0   10    3     -1.87      3.72 
    1   10    3     -0.25      3.77 
    2   10    3      1.74      4.06 
    3   10    3      1.10      1.01 
    4   10    3      2.25      3.13 
    5   10    3      1.58     -0.58 
    6   10    3      0.20      1.28 
    7   10    3      0.69     -0.44 
    8   10    3      0.08      0.39 
   -8   11    3      0.46     -0.27 
   -7   11    3     -0.05      1.04 
   -6   11    3      0.28     -0.42 
   -5   11    3     -0.28      2.82 
   -4   11    3     -0.32     -1.29 
   -3   11    3     -0.44      0.42 
   -2   11    3     -2.13     -2.04 
   -1   11    3      1.31      0.97 
    0   11    3      0.75      2.89 
    1   11    3      1.48      1.48 
    2   11    3     -0.02      2.84 
    3   11    3      0.60      0.63 
    4   11    3     -0.68     -0.35 
    5   11    3      0.44     -0.64 
    6   11    3     -0.21     -0.90 
    7   11    3     -0.60     -0.23 
   -7   12    3     -0.82     -0.40 
   -6   12    3     -0.90      0.98 
   -5   12    3     -1.07      0.71 
   -4   12    3     -1.38      2.97 
   -3   12    3     -4.36     -1.49 
   -2   12    3     -3.17      1.35 
   -1   12    3     -4.84     -3.44 
    0   12    3     -3.74      0.32 
    1   12    3     -3.22     -1.77 
    2   12    3     -1.79      0.70 
    3   12    3      0.03     -1.29 
    4   12    3      0.34      0.19 
    5   12    3      0.96     -0.73 
    6   12    3      0.16     -1.18 
    7   12    3      0.18      0.37 
   -7   13    3     -0.83      0.10 
   -6   13    3      0.86      0.77 
   -5   13    3     -0.78     -0.15 
   -4   13    3      2.20      0.56 
   -3   13    3     -0.03     -0.85 
   -2   13    3      1.44     -1.59 
   -1   13    3      1.02      0.90 
    0   13    3     -0.68      0.95 
    1   13    3      0.95      2.73 
    2   13    3     -2.81      0.53 
    3   13    3      0.67      1.26 
    4   13    3     -1.58     -1.11 
    5   13    3      0.53     -0.97 
    6   13    3     -0.35     -1.20 
    7   13    3     -0.66     -1.41 
   -7   14    3      0.07      0.01 
   -6   14    3      0.28      0.83 
   -5   14    3     -0.44     -0.12 
   -4   14    3     -1.09      1.36 
   -3   14    3     -0.08     -3.35 
   -2   14    3     -2.33     -1.73 
   -1   14    3      0.43     -6.29 
    0   14    3     -1.86     -2.57 
    1   14    3      0.92     -4.17 
    2   14    3     -0.61     -2.07 
    3   14    3      1.50     -1.88 
    4   14    3      1.79     -0.38 
    5   14    3      0.81     -0.64 
    6   14    3      1.64     -1.44 
    7   14    3     -0.51      0.06 
   -7   15    3      0.18     -0.90 
   -6   15    3     -0.27      1.22 
   -5   15    3      1.28     -1.18 
   -4   15    3      0.43      1.33 
   -3   15    3      1.48     -1.31 
   -2   15    3      1.47     -1.25 
   -1   15    3      0.73     -0.53 
    0   15    3      0.09     -2.17 
    1   15    3     -0.85      1.32 
    2   15    3     -1.08     -3.22 
    3   15    3     -0.51      1.03 
    4   15    3     -0.27     -2.39 
    5   15    3      0.80      0.13 
    6   15    3     -0.31     -0.73 
    7   15    3      0.33     -0.83 
   -6   16    3      0.62      1.56 
   -5   16    3      0.21      0.24 
   -4   16    3      0.19      1.17 
   -3   16    3      1.64      0.76 
   -2   16    3      0.46     -1.62 
   -1   16    3      3.08     -0.91 
    0   16    3      0.33     -1.42 
    1   16    3      1.94     -0.12 
    2   16    3      0.90     -1.28 
    3   16    3      1.37      0.32 
    4   16    3      1.11      1.33 
    5   16    3      0.36      0.10 
    6   16    3      1.04     -0.05 
   -6   17    3     -0.49      0.25 
   -5   17    3      0.78      0.25 
   -4   17    3     -0.57     -0.75 
   -3   17    3      1.01      0.00 
   -2   17    3      0.99     -1.73 
   -1   17    3      0.10     -1.34 
    0   17    3      1.45     -2.45 
    1   17    3     -1.57     -1.50 
    2   17    3      1.15     -2.71 
    3   17    3     -1.16     -1.06 
    4   17    3      0.97     -0.89 
    5   17    3      0.21      0.82 
    6   17    3     -0.22     -0.35 
   -6   18    3     -0.55      1.31 
   -5   18    3     -0.18      0.71 
   -4   18    3     -0.76      1.80 
   -3   18    3     -1.08      2.48 
   -2   18    3      0.62      1.11 
   -1   18    3     -0.63      1.47 
    0   18    3     -0.21      0.90 
    1   18    3     -1.34      0.80 
    2   18    3      0.13      0.13 
    3   18    3     -0.68      0.82 
    4   18    3     -1.18      0.97 
    5   18    3     -0.76     -0.06 
   -5   19    3     -0.89     -0.45 
   -4   19    3      0.41     -1.32 
   -3   19    3     -0.66     -0.10 
   -2   19    3      0.78     -0.43 
   -1   19    3     -0.50     -1.77 
    0   19    3      0.66     -1.15 
    1   19    3     -0.44     -2.25 
    2   19    3      0.10     -1.58 
    3   19    3      0.71     -1.45 
    4   19    3     -0.38      0.90 
    5   19    3      0.13      0.91 
   -5   20    3     -0.59      0.31 
   -4   20    3     -2.08      0.16 
   -3   20    3     -1.69     -0.01 
   -2   20    3     -1.28      1.11 
   -1   20    3     -1.41     -1.09 
    0   20    3     -1.83      0.32 
    1   20    3     -1.39     -1.00 
    2   20    3     -1.36     -0.21 
    3   20    3     -0.96     -0.18 
    4   20    3     -1.69     -0.34 
    5   20    3     -0.71     -0.75 
   -4   21    3      0.23     -0.44 
   -3   21    3     -0.73     -1.16 
   -2   21    3     -0.66      0.33 
   -1   21    3     -0.49     -2.01 
    0   21    3     -0.77     -1.76 
    1   21    3     -0.92     -1.19 
    2   21    3     -0.69     -2.52 
    3   21    3      0.20      0.49 
    4   21    3     -1.82      0.05 
   -3   22    3      0.35     -0.93 
   -2   22    3     -0.95     -0.39 
   -1   22    3      0.90     -0.93 
    0   22    3     -0.27     -1.39 
    1   22    3      0.40     -0.17 
    2   22    3     -0.45     -0.96 
    3   22    3      0.08      0.18 
   -3   23    3      0.27     -0.97 
   -2   23    3     -0.62     -0.36 
   -1   23    3     -0.01     -1.29 
    0   23    3     -0.04     -2.01 
    1   23    3     -1.48     -1.34 
    2   23    3      0.45     -1.72 
   -1   24    3      0.51      0.75 
    0   24    3      1.36     -0.31 
    1   24    3      0.16      0.77 
   -8    0    4     -0.61      0.00 
   -7    0    4      1.42      0.09 
   -6    0    4      0.17      0.01 
   -5    0    4      4.71      0.00 
   -4    0    4     -0.59      0.02 
   -3    0    4      4.85     -0.05 
   -2    0    4     -3.23     -0.06 
   -1    0    4     12.12     -0.03 
    0    0    4     21.18      0.00 
    1    0    4     15.83      0.19 
    2    0    4     11.16      0.01 
    3    0    4      7.89      0.09 
    4    0    4      6.12     -0.12 
    5    0    4      1.63     -0.04 
    6    0    4      1.72     -0.15 
    7    0    4      1.95     -0.01 
    8    0    4      1.49      0.03 
   -8    1    4     -0.53      0.26 
   -7    1    4      0.62     -1.61 
   -6    1    4     -1.24      0.23 
   -5    1    4      0.34     -3.45 
   -4    1    4     -1.27     -1.93 
   -3    1    4     -1.72     -3.68 
   -2    1    4     -2.36     -1.83 
   -1    1    4     -6.78     -2.92 
    0    1    4     -6.06      7.24 
    1    1    4     -6.54      5.68 
    2    1    4     -2.55      1.73 
    3    1    4     -2.13      0.60 
    4    1    4     -1.54     -0.18 
    5    1    4      0.02     -0.62 
    6    1    4     -1.72      1.78 
    7    1    4      0.81     -1.15 
    8    1    4     -0.81      2.06 
   -8    2    4     -0.12     -1.39 
   -7    2    4      1.60     -1.11 
   -6    2    4      1.57     -2.39 
   -5    2    4      3.10      0.27 
   -4    2    4      2.84     -5.44 
   -3    2    4      4.25     -3.22 
   -2    2    4      1.10     -9.98 
   -1    2    4     12.11     -4.17 
    0    2    4     16.39      1.52 
    1    2    4     15.85     -1.22 
    2    2    4      6.91      1.03 
    3    2    4      8.75     -1.57 
    4    2    4      3.16      2.07 
    5    2    4      2.14     -1.30 
    6    2    4      1.20      0.21 
    7    2    4      2.00      0.43 
    8    2    4      1.47      0.45 
   -8    3    4     -0.43     -0.76 
   -7    3    4      0.46     -0.64 
   -6    3    4     -1.07     -2.48 
   -5    3    4     -0.12     -2.75 
   -4    3    4     -1.12     -3.95 
   -3    3    4     -1.83     -6.12 
   -2    3    4     -3.77     -4.52 
   -1    3    4     -7.74    -13.29 
    0    3    4    -10.33     -1.42 
    1    3    4     -8.45     -4.32 
    2    3    4     -3.76     -1.29 
    3    3    4     -2.63     -2.73 
    4    3    4     -0.48     -2.37 
    5    3    4     -0.30      0.15 
    6    3    4     -1.71     -0.91 
    7    3    4      0.45      0.91 
    8    3    4     -0.74      0.58 
   -8    4    4      1.01     -1.37 
   -7    4    4      1.50     -0.83 
   -6    4    4      2.48     -0.85 
   -5    4    4      1.55     -1.07 
   -4    4    4      4.80     -2.53 
   -3    4    4      3.26     -4.93 
   -2    4    4      4.46     -8.31 
   -1    4    4      9.51     -3.12 
    0    4    4      7.96      0.27 
    1    4    4     12.49      1.92 
    2    4    4      2.71     -2.91 
    3    4    4      7.77      0.44 
    4    4    4      0.15     -1.10 
    5    4    4      2.15     -1.18 
    6    4    4      0.62     -0.67 
    7    4    4      1.64      0.54 
    8    4    4      0.80      0.57 
   -8    5    4      0.30     -0.49 
   -7    5    4     -0.09     -0.99 
   -6    5    4      0.97     -1.70 
   -5    5    4     -0.30     -2.62 
   -4    5    4      0.76     -2.58 
   -3    5    4      1.31     -4.60 
   -2    5    4     -1.92     -4.68 
   -1    5    4      3.15    -12.01 
    0    5    4     -5.81     -5.36 
    1    5    4     -0.42     -4.51 
    2    5    4     -1.03     -0.75 
    3    5    4      0.39     -2.38 
    4    5    4      2.92      0.17 
    5    5    4     -0.03      0.55 
    6    5    4      0.87     -0.24 
    7    5    4     -0.65      0.57 
    8    5    4      0.53      0.39 
   -8    6    4      0.64      0.08 
   -7    6    4      0.30      0.04 
   -6    6    4     -0.13      0.85 
   -5    6    4      1.18     -0.37 
   -4    6    4     -0.19     -0.39 
   -3    6    4      2.85     -4.10 
   -2    6    4      0.31     -5.40 
   -1    6    4      4.88     -1.11 
    0    6    4      2.38     -1.01 
    1    6    4      4.67      3.51 
    2    6    4      2.90     -3.52 
    3    6    4      2.51      1.48 
    4    6    4      0.96     -3.74 
    5    6    4      0.77     -1.09 
    6    6    4      0.57     -1.13 
    7    6    4      1.07      0.26 
    8    6    4      0.04     -0.12 
   -8    7    4     -0.14      0.29 
   -7    7    4      0.59     -1.23 
   -6    7    4     -0.10      0.61 
   -5    7    4      0.30     -1.16 
   -4    7    4     -0.40      0.42 
   -3    7    4      0.78      0.27 
   -2    7    4     -1.08     -2.45 
   -1    7    4      5.67     -1.32 
    0    7    4     -2.36     -3.17 
    1    7    4      0.49      2.47 
    2    7    4     -0.57      2.88 
    3    7    4      0.67      1.43 
    4    7    4      1.22      4.84 
    5    7    4      0.62      1.58 
    6    7    4     -0.19      2.11 
    7    7    4      0.21     -0.43 
    8    7    4      0.05      0.77 
   -8    8    4     -0.41      0.20 
   -7    8    4     -0.26      0.36 
   -6    8    4     -1.53     -0.50 
   -5    8    4     -0.90      1.59 
   -4    8    4     -2.58     -3.50 
   -3    8    4      1.32     -1.62 
   -2    8    4     -1.87     -7.56 
   -1    8    4      1.78     -0.08 
    0    8    4     -0.40     -1.65 
    1    8    4     -0.12      0.95 
    2    8    4      1.39     -0.68 
    3    8    4     -0.38     -0.61 
    4    8    4      1.97     -2.52 
    5    8    4      0.58     -1.17 
    6    8    4      0.49     -0.35 
    7    8    4      0.69      0.55 
    8    8    4      0.22     -0.49 
   -8    9    4     -0.82     -0.15 
   -7    9    4      0.86     -0.89 
   -6    9    4     -1.68     -0.06 
   -5    9    4     -0.36      0.21 
   -4    9    4     -2.78      0.56 
   -3    9    4     -2.90      0.49 
   -2    9    4     -2.19     -1.01 
   -1    9    4     -0.45      1.58 
    0    9    4     -2.45     -1.35 
    1    9    4     -4.30      2.26 
    2    9    4     -3.06      3.26 
    3    9    4     -1.82      2.15 
    4    9    4     -2.51      3.76 
    5    9    4      0.12      2.16 
    6    9    4     -1.89      0.71 
    7    9    4      0.76      0.25 
    8    9    4     -0.55     -0.01 
   -8   10    4     -0.02     -0.09 
   -7   10    4     -0.21      0.89 
   -6   10    4      0.11     -0.78 
   -5   10    4     -2.81      1.10 
   -4   10    4      0.41     -3.34 
   -3   10    4     -0.57     -0.63 
   -2   10    4      1.70     -6.80 
   -1   10    4      0.01      0.86 
    0   10    4     -0.61     -1.83 
    1   10    4     -0.65      0.16 
    2   10    4     -1.51     -0.18 
    3   10    4      0.37     -0.40 
    4   10    4      0.90     -0.67 
    5   10    4      1.47     -0.33 
    6   10    4      0.34      0.08 
    7   10    4      0.42      0.26 
   -7   11    4      0.57     -0.89 
   -6   11    4     -0.96     -1.27 
   -5   11    4     -0.91     -0.31 
   -4   11    4     -2.93     -0.81 
   -3   11    4     -1.59     -3.08 
   -2   11    4     -2.20     -2.10 
   -1   11    4     -0.36     -3.64 
    0   11    4     -1.41     -2.51 
    1   11    4     -1.98     -3.81 
    2   11    4     -2.38     -0.44 
    3   11    4     -0.76     -0.68 
    4   11    4     -1.18      0.56 
    5   11    4     -0.11      1.23 
    6   11    4      0.19     -0.45 
    7   11    4     -0.20      0.73 
   -7   12    4     -0.36      0.64 
   -6   12    4      0.37      0.41 
   -5   12    4     -1.27     -0.21 
   -4   12    4      0.85      0.75 
   -3   12    4      0.18     -0.15 
   -2   12    4      3.53     -0.75 
   -1   12    4     -0.40      1.62 
    0   12    4      0.60     -0.45 
    1   12    4     -1.13      1.37 
    2   12    4     -1.23     -2.07 
    3   12    4      0.07      1.45 
    4   12    4      0.46     -1.18 
    5   12    4      1.80      0.58 
    6   12    4      0.83     -0.24 
    7   12    4      1.22     -0.34 
   -7   13    4      0.41     -0.48 
   -6   13    4     -0.05     -0.54 
   -5   13    4     -0.31     -0.91 
   -4   13    4     -1.67     -1.05 
   -3   13    4      2.38     -2.25 
   -2   13    4      0.52     -2.68 
   -1   13    4      5.24     -2.85 
    0   13    4      1.49     -2.37 
    1   13    4      4.39     -2.51 
    2   13    4      1.13     -1.58 
    3   13    4      2.29     -0.28 
    4   13    4      0.73      1.01 
    5   13    4      0.26      0.56 
    6   13    4      1.40      1.01 
    7   13    4     -0.65     -0.07 
   -7   14    4      0.10      0.24 
   -6   14    4     -0.56      0.28 
   -5   14    4      0.73      0.83 
   -4   14    4     -1.37      1.35 
   -3   14    4      1.00      1.69 
   -2   14    4      1.24      2.11 
   -1   14    4     -0.15      2.13 
    0   14    4      1.16      0.73 
    1   14    4     -1.85      1.01 
    2   14    4      1.56     -1.97 
    3   14    4     -1.45      0.97 
    4   14    4      1.67     -1.07 
    5   14    4      0.54      0.82 
    6   14    4      0.77     -0.10 
    7   14    4      1.19      0.26 
   -6   15    4     -0.66      0.45 
   -5   15    4      0.23     -0.47 
   -4   15    4     -1.20     -0.26 
   -3   15    4      1.37      0.76 
   -2   15    4      2.10     -0.54 
   -1   15    4      3.90      2.00 
    0   15    4      2.09     -0.43 
    1   15    4      2.65      2.01 
    2   15    4      2.35      0.09 
    3   15    4      1.06      1.52 
    4   15    4     -0.13      1.28 
    5   15    4     -0.22      0.30 
    6   15    4      0.42      1.01 
   -6   16    4     -0.52     -0.39 
   -5   16    4     -0.02      1.10 
   -4   16    4     -0.78     -0.72 
   -3   16    4     -0.45      1.75 
   -2   16    4      0.63      0.21 
   -1   16    4     -0.27      1.18 
    0   16    4      1.76      0.48 
    1   16    4     -0.62     -1.03 
    2   16    4      2.51     -0.31 
    3   16    4     -0.51     -1.37 
    4   16    4      1.28      0.15 
    5   16    4     -0.40     -0.21 
    6   16    4      0.11     -0.17 
   -6   17    4     -1.18     -0.17 
   -5   17    4     -0.18     -0.02 
   -4   17    4     -1.80     -0.69 
   -3   17    4     -1.90      0.09 
   -2   17    4     -0.10      1.01 
   -1   17    4     -0.53      0.96 
    0   17    4      0.11      0.62 
    1   17    4     -1.03      0.18 
    2   17    4      1.04      1.43 
    3   17    4     -1.04      0.00 
    4   17    4     -0.59     -0.08 
    5   17    4     -0.80     -1.01 
    6   17    4      0.24     -0.22 
   -5   18    4      0.30     -0.66 
   -4   18    4      1.37     -0.53 
   -3   18    4     -0.64     -0.46 
   -2   18    4      1.43     -0.51 
   -1   18    4      0.37     -0.57 
    0   18    4      2.14      0.56 
    1   18    4      1.59     -1.18 
    2   18    4      2.26      0.06 
    3   18    4      1.78     -0.35 
    4   18    4     -0.22     -0.01 
    5   18    4      0.00     -0.04 
   -5   19    4     -0.42     -0.39 
   -4   19    4     -0.80     -2.18 
   -3   19    4     -1.42     -1.96 
   -2   19    4     -1.74     -0.76 
   -1   19    4      0.19     -1.84 
    0   19    4     -1.18     -0.79 
    1   19    4      0.38     -2.05 
    2   19    4     -0.61      0.23 
    3   19    4     -0.07     -1.65 
    4   19    4     -0.20     -1.41 
    5   19    4      0.28     -2.08 
   -4   20    4      1.27      0.75 
   -3   20    4      0.80     -0.93 
   -2   20    4      0.70     -0.37 
   -1   20    4      1.59     -0.98 
    0   20    4      1.74      0.30 
    1   20    4      1.56     -0.52 
    2   20    4      2.71     -0.13 
    3   20    4      0.27      1.25 
    4   20    4     -0.38     -1.23 
   -4   21    4      0.96     -1.63 
   -3   21    4      0.80     -0.81 
   -2   21    4     -0.28     -1.61 
   -1   21    4      1.93     -0.40 
    0   21    4      0.57     -1.11 
    1   21    4      1.30     -0.29 
    2   21    4      0.21     -1.01 
    3   21    4      0.76     -0.50 
    4   21    4      0.38     -1.59 
   -3   22    4      0.94     -0.06 
   -2   22    4      0.33     -0.68 
   -1   22    4      1.55     -0.30 
    0   22    4      1.63     -0.14 
    1   22    4      1.10     -1.04 
    2   22    4      2.49      0.57 
    3   22    4     -0.95     -0.40 
   -2   23    4      0.35     -0.64 
   -1   23    4      0.40      0.93 
    0   23    4      0.86      0.88 
    1   23    4     -0.35      0.56 
    2   23    4      0.57      0.24 
   -8    0    5     -0.19     -0.02 
   -7    0    5      1.80      0.02 
   -6    0    5     -0.18      0.18 
   -5    0    5      3.95      0.02 
   -4    0    5      2.18      0.05 
   -3    0    5      4.09     -0.07 
   -2    0    5      4.66      0.00 
   -1    0    5      1.33     -0.04 
    0    0    5     -4.04      0.01 
    1    0    5     -6.79     -0.01 
    2    0    5      0.07      0.07 
    3    0    5     -2.21     -0.02 
    4    0    5      0.61     -0.09 
    5    0    5      0.90     -0.08 
    6    0    5     -1.10     -0.06 
    7    0    5      2.22     -0.02 
    8    0    5     -3.09      0.00 
   -8    1    5      0.56     -0.41 
   -7    1    5      0.88      1.46 
   -6    1    5      1.46      0.24 
   -5    1    5      0.26      3.60 
   -4    1    5      3.51     -0.40 
   -3    1    5      1.70      3.96 
   -2    1    5      6.52     -4.26 
   -1    1    5      3.10      8.81 
    0    1    5      1.93     10.58 
    1    1    5      1.59     12.31 
    2    1    5      0.11      7.28 
    3    1    5      1.76      6.23 
    4    1    5     -1.25      4.80 
    5    1    5      1.03      1.27 
    6    1    5     -0.25      1.13 
    7    1    5      0.05      1.56 
    8    1    5     -0.31      0.74 
   -8    2    5      0.23     -0.59 
   -7    2    5      0.62      1.02 
   -6    2    5      1.64     -1.40 
   -5    2    5      2.44      0.73 
   -4    2    5      3.58     -1.27 
   -3    2    5      3.80     -0.75 
   -2    2    5      5.09     -1.89 
   -1    2    5      6.28     -7.57 
    0    2    5     -0.23     -7.50 
    1    2    5     -0.58     -9.27 
    2    2    5      1.12     -2.54 
    3    2    5      0.53     -3.64 
    4    2    5      1.93     -1.33 
    5    2    5      0.49     -0.15 
    6    2    5      0.23     -1.60 
    7    2    5      0.27      1.61 
    8    2    5     -1.84     -1.36 
   -8    3    5      1.49      0.07 
   -7    3    5      1.06      2.03 
   -6    3    5      1.95      2.04 
   -5    3    5      0.89      2.63 
   -4    3    5      4.57      4.00 
   -3    3    5      3.66      3.88 
   -2    3    5     10.19      3.20 
   -1    3    5      4.71      9.80 
    0    3    5      2.77      9.99 
    1    3    5      1.08     13.02 
    2    3    5      1.62      4.68 
    3    3    5      1.88      8.36 
    4    3    5     -1.02      1.76 
    5    3    5      1.36      2.61 
    6    3    5     -0.07      0.50 
    7    3    5     -0.36      2.22 
    8    3    5     -0.57      0.75 
   -8    4    5      0.45     -0.46 
   -7    4    5     -0.11     -0.25 
   -6    4    5      2.53      0.30 
   -5    4    5      1.49     -1.06 
   -4    4    5      3.90      0.43 
   -3    4    5      3.16     -0.87 
   -2    4    5      5.02     -1.50 
   -1    4    5     10.75     -3.25 
    0    4    5      4.73     -7.15 
    1    4    5      5.24     -5.37 
    2    4    5      1.47     -2.14 
    3    4    5      2.91     -1.69 
    4    4    5      1.93      0.85 
    5    4    5     -0.02     -0.08 
    6    4    5      1.12     -0.02 
    7    4    5     -1.37      0.16 
    8    4    5     -0.21     -0.40 
   -8    5    5      0.80      0.62 
   -7    5    5     -0.36      0.77 
   -6    5    5     -0.51      1.36 
   -5    5    5      0.24      1.99 
   -4    5    5      0.31      2.38 
   -3    5    5      2.96      3.31 
   -2    5    5      4.67      2.86 
   -1    5    5      1.68      7.36 
    0    5    5      0.21      5.61 
    1    5    5     -3.26      8.56 
    2    5    5      2.03      3.26 
    3    5    5     -1.88      5.89 
    4    5    5      1.33      0.76 
    5    5    5      0.11      1.67 
    6    5    5      0.84      0.55 
    7    5    5     -0.70      1.68 
    8    5    5     -0.31      0.38 
   -8    6    5      0.24     -0.45 
   -7    6    5      0.86     -0.61 
   -6    6    5      0.16      0.58 
   -5    6    5      1.95     -1.23 
   -4    6    5      0.96      0.85 
   -3    6    5      1.34     -0.52 
   -2    6    5      3.35     -0.46 
   -1    6    5      5.60      3.17 
    0    6    5      5.24     -3.39 
    1    6    5      1.20     -0.34 
    2    6    5     -0.17     -1.25 
    3    6    5      0.38      0.54 
    4    6    5     -1.58      1.84 
    5    6    5     -0.84      0.78 
    6    6    5     -0.78      0.81 
    7    6    5     -0.10     -0.39 
    8    6    5     -0.31      0.50 
   -8    7    5     -0.17     -0.18 
   -7    7    5     -0.39     -0.62 
   -6    7    5     -0.68     -1.28 
   -5    7    5     -1.49      0.06 
   -4    7    5      1.26     -2.55 
   -3    7    5      1.22      1.28 
   -2    7    5      4.96     -2.89 
   -1    7    5     -0.32      3.11 
    0    7    5      0.54     -0.33 
    1    7    5     -3.37      1.08 
    2    7    5      0.46      1.01 
    3    7    5     -1.58      0.01 
    4    7    5      1.80      1.06 
    5    7    5      0.83     -0.38 
    6    7    5      0.61      0.56 
    7    7    5     -0.36      0.83 
    8    7    5      0.16      0.05 
   -8    8    5      0.28     -0.35 
   -7    8    5      0.93      0.41 
   -6    8    5     -0.58     -1.11 
   -5    8    5      0.78     -0.14 
   -4    8    5     -0.71     -1.44 
   -3    8    5     -0.42     -1.87 
   -2    8    5      1.24     -0.82 
   -1    8    5     -0.85      1.44 
    0    8    5      2.87     -1.07 
    1    8    5     -2.54     -2.85 
    2    8    5     -1.94     -1.57 
    3    8    5     -2.47     -1.09 
    4    8    5     -3.49     -0.59 
    5    8    5     -2.32      0.74 
    6    8    5     -1.14     -1.11 
    7    8    5      0.25      0.59 
   -8    9    5      0.10     -0.45 
   -7    9    5     -0.52      0.18 
   -6    9    5      0.96     -0.94 
   -5    9    5     -1.55     -1.96 
   -4    9    5      4.11     -1.57 
   -3    9    5      0.85     -0.78 
   -2    9    5      8.74     -1.55 
   -1    9    5     -0.44      0.55 
    0    9    5      3.59     -1.26 
    1    9    5      0.00     -1.44 
    2    9    5      0.62     -1.35 
    3    9    5      1.17     -0.46 
    4    9    5      0.74      0.90 
    5    9    5      1.57      0.95 
    6    9    5     -0.15      0.26 
    7    9    5     -0.38      0.82 
   -7   10    5      0.51      0.55 
   -6   10    5      0.63     -1.08 
   -5   10    5     -0.34     -0.44 
   -4   10    5      0.14     -2.47 
   -3   10    5      0.88     -2.62 
   -2   10    5      0.95     -1.78 
   -1   10    5      0.73     -1.94 
    0   10    5      1.33     -0.65 
    1   10    5      1.76     -4.47 
    2   10    5     -1.05     -2.21 
    3   10    5     -0.58     -2.41 
    4   10    5     -1.63     -1.47 
    5   10    5     -2.18     -0.37 
    6   10    5      0.53     -0.71 
    7   10    5     -0.74      0.25 
   -7   11    5     -1.40      0.47 
   -6   11    5      0.76      0.65 
   -5   11    5     -0.58     -1.58 
   -4   11    5      1.64      1.09 
   -3   11    5      0.53     -0.34 
   -2   11    5      5.03      3.81 
   -1   11    5     -1.00      0.34 
    0   11    5      2.44      2.02 
    1   11    5      0.11      0.06 
    2   11    5      1.84     -1.06 
    3   11    5     -0.32      1.55 
    4   11    5      0.56      0.36 
    5   11    5     -0.14      2.46 
    6   11    5      0.04      0.29 
    7   11    5     -0.32      0.99 
   -7   12    5      0.48      0.32 
   -6   12    5      0.83      0.18 
   -5   12    5      0.29     -0.81 
   -4   12    5      0.65     -1.55 
   -3   12    5      2.14     -0.19 
   -2   12    5      1.90     -0.51 
   -1   12    5      3.54      1.40 
    0   12    5      1.40      0.35 
    1   12    5      4.64      1.47 
    2   12    5      1.21     -0.37 
    3   12    5      1.39      0.72 
    4   12    5     -0.65      0.17 
    5   12    5     -0.79     -0.34 
    6   12    5     -0.23      1.01 
    7   12    5     -0.62     -0.82 
   -7   13    5     -1.15     -0.06 
   -6   13    5     -0.07      0.70 
   -5   13    5     -0.90      0.14 
   -4   13    5     -1.25     -0.18 
   -3   13    5     -1.54      0.77 
   -2   13    5     -1.55      3.22 
   -1   13    5     -2.54      0.57 
    0   13    5     -1.56      2.09 
    1   13    5     -1.71     -0.10 
    2   13    5      1.69      0.60 
    3   13    5     -2.07      0.11 
    4   13    5      0.98      1.06 
    5   13    5     -1.07      1.13 
    6   13    5      0.30      0.82 
   -6   14    5     -0.12      0.23 
   -5   14    5      0.99     -0.18 
   -4   14    5      0.30     -1.05 
   -3   14    5      0.94      1.26 
   -2   14    5      1.16      1.71 
   -1   14    5      0.77      4.04 
    0   14    5      1.02      1.44 
    1   14    5      0.23      3.98 
    2   14    5      1.31      2.07 
    3   14    5     -0.46      2.04 
    4   14    5     -0.70      0.53 
    5   14    5     -0.16      0.00 
    6   14    5     -0.76      0.48 
   -6   15    5     -0.24     -0.03 
   -5   15    5     -1.52      0.01 
   -4   15    5     -0.19     -1.48 
   -3   15    5     -2.65     -0.44 
   -2   15    5     -1.36      0.03 
   -1   15    5     -2.78     -0.36 
    0   15    5     -1.33      0.09 
    1   15    5     -0.83     -1.08 
    2   15    5      0.86      1.12 
    3   15    5     -0.04     -1.15 
    4   15    5      0.02      1.22 
    5   15    5      0.22     -0.31 
    6   15    5     -0.01      0.45 
   -6   16    5     -0.08     -0.62 
   -5   16    5      0.64      0.37 
   -4   16    5      0.73     -1.45 
   -3   16    5      0.25     -0.31 
   -2   16    5     -0.71      1.22 
   -1   16    5     -0.90      1.46 
    0   16    5     -0.24      1.05 
    1   16    5     -1.17      0.09 
    2   16    5     -0.81      2.60 
    3   16    5     -0.73     -0.24 
    4   16    5     -0.25      0.57 
    5   16    5      0.43     -0.56 
    6   16    5      0.40      0.30 
   -5   17    5      0.07     -0.22 
   -4   17    5      1.21      0.33 
   -3   17    5     -0.43     -1.45 
   -2   17    5      1.53      0.61 
   -1   17    5     -0.70     -0.96 
    0   17    5      0.54      0.92 
    1   17    5      0.81      0.06 
    2   17    5      0.83      1.50 
    3   17    5      0.97      0.93 
    4   17    5     -0.24      0.00 
    5   17    5      0.75      0.34 
   -5   18    5      0.14      0.15 
   -4   18    5      1.94     -0.90 
   -3   18    5      1.34     -1.44 
   -2   18    5     -0.32     -1.06 
   -1   18    5      0.97      0.12 
    0   18    5     -0.54     -0.81 
    1   18    5      1.42     -0.70 
    2   18    5     -2.05      0.28 
    3   18    5      1.18     -0.71 
    4   18    5      0.17      0.15 
    5   18    5      1.81     -0.60 
   -5   19    5      0.61      1.27 
   -4   19    5     -0.14      2.08 
   -3   19    5      1.01      0.12 
   -2   19    5      1.36      1.81 
   -1   19    5      0.98      0.34 
    0   19    5      0.09      1.97 
    1   19    5      0.57      1.17 
    2   19    5      0.31      2.57 
    3   19    5     -1.19      1.22 
    4   19    5      0.55     -0.36 
   -4   20    5      1.78      0.58 
   -3   20    5      1.48     -0.10 
   -2   20    5      1.29     -0.97 
   -1   20    5      1.26      1.66 
    0   20    5      0.68     -0.68 
    1   20    5      1.27      1.21 
    2   20    5     -0.15     -0.90 
    3   20    5      1.25      0.69 
    4   20    5      1.29     -0.10 
   -3   21    5      0.16      0.68 
   -2   21    5      0.51      1.03 
   -1   21    5      0.63      1.29 
    0   21    5     -0.24      1.36 
    1   21    5      0.52      0.87 
    2   21    5     -0.75      2.50 
    3   21    5     -0.99     -0.85 
   -2   22    5      1.05      0.08 
   -1   22    5     -0.44      1.47 
    0   22    5     -0.11      0.67 
    1   22    5     -0.40      0.62 
    2   22    5      0.22      0.22 
    0   23    5      0.18      0.78 
   -8    0    6      0.30      0.00 
   -7    0    6     -0.86      0.01 
   -6    0    6     -0.24      0.00 
   -5    0    6     -3.02      0.21 
   -4    0    6      0.96     -0.04 
   -3    0    6     -2.98      0.07 
   -2    0    6      6.47     -0.11 
   -1    0    6     -5.11      0.21 
    0    0    6     -4.07     -0.12 
    1    0    6     -8.52     -0.01 
    2    0    6     -5.63      0.06 
    3    0    6     -3.56      0.02 
    4    0    6     -4.62      0.12 
    5    0    6     -0.62      0.08 
    6    0    6     -1.15      0.34 
    7    0    6     -1.20      0.06 
    8    0    6      0.17     -0.02 
   -8    1    6      0.26      0.17 
   -7    1    6     -0.83      1.21 
   -6    1    6      0.69      1.28 
   -5    1    6     -1.09      3.35 
   -4    1    6      0.54      3.52 
   -3    1    6     -0.62      3.99 
   -2    1    6     -0.12      7.55 
   -1    1    6      2.94      3.83 
    0    1    6      2.90      0.18 
    1    1    6      5.32     -4.34 
    2    1    6      0.57      1.94 
    3    1    6      2.26     -1.42 
    4    1    6      0.58      1.75 
    5    1    6      0.24      0.66 
    6    1    6      0.55      0.51 
    7    1    6     -1.26      1.80 
    8    1    6      0.64     -2.23 
   -8    2    6      0.48      0.79 
   -7    2    6     -1.59      1.27 
   -6    2    6     -1.09      1.57 
   -5    2    6     -3.01      1.11 
   -4    2    6     -1.69      4.24 
   -3    2    6     -3.04      2.56 
   -2    2    6      1.23      9.22 
   -1    2    6     -6.65      5.09 
    0    2    6     -7.13      5.67 
    1    2    6    -10.02      2.96 
    2    2    6     -5.57      1.88 
    3    2    6     -5.65      3.12 
    4    2    6     -3.50     -1.09 
    5    2    6     -1.69      1.31 
    6    2    6     -0.72     -0.68 
    7    2    6     -1.64     -0.23 
    8    2    6     -0.01     -0.31 
   -8    3    6      0.62      0.18 
   -7    3    6     -0.43     -0.42 
   -6    3    6      0.31      2.57 
   -5    3    6     -0.16      0.59 
   -4    3    6     -0.15      4.31 
   -3    3    6      0.21      1.17 
   -2    3    6     -0.12      5.51 
   -1    3    6      4.32      6.50 
    0    3    6      5.99      2.47 
    1    3    6      7.98      2.24 
    2    3    6      1.39      1.16 
    3    3    6      2.82      1.78 
    4    3    6      0.30      1.96 
    5    3    6      0.19      0.42 
    6    3    6      0.45      1.15 
    7    3    6     -1.42     -0.95 
   -8    4    6      0.10      1.33 
   -7    4    6     -1.28     -0.04 
   -6    4    6     -1.92      0.34 
   -5    4    6     -2.93      0.48 
   -4    4    6     -3.66      1.69 
   -3    4    6     -3.26      2.91 
   -2    4    6     -3.75      6.27 
   -1    4    6     -7.52      4.14 
    0    4    6     -8.63      2.40 
    1    4    6     -9.93      0.08 
    2    4    6     -4.88      1.41 
    3    4    6     -7.26      0.59 
    4    4    6     -2.18     -0.40 
    5    4    6     -2.72      0.33 
    6    4    6     -0.54      0.20 
    7    4    6     -1.91     -0.59 
   -8    5    6      0.97      0.28 
   -7    5    6      1.16     -0.02 
   -6    5    6     -0.57      1.22 
   -5    5    6      2.19      0.87 
   -4    5    6     -1.37      2.33 
   -3    5    6      2.33      0.42 
   -2    5    6      0.13      3.47 
   -1    5    6      0.71      5.74 
    0    5    6      5.27      4.40 
    1    5    6      3.51      2.80 
    2    5    6      2.53      0.35 
    3    5    6      0.58      1.28 
    4    5    6     -0.41      0.40 
    5    5    6     -0.48     -0.14 
    6    5    6     -0.63      0.61 
    7    5    6      0.33     -1.11 
   -8    6    6     -0.10      0.50 
   -7    6    6      0.69     -0.58 
   -6    6    6     -0.06     -1.32 
   -5    6    6     -1.21     -1.50 
   -4    6    6      0.28     -0.59 
   -3    6    6     -1.97      1.07 
   -2    6    6      0.87      2.34 
   -1    6    6     -4.94      0.81 
    0    6    6     -2.63     -1.33 
    1    6    6     -4.31     -3.42 
    2    6    6     -2.00     -0.53 
    3    6    6     -2.72     -2.53 
    4    6    6     -1.41      0.15 
    5    6    6     -0.52     -0.51 
    6    6    6     -0.91      0.73 
    7    6    6     -1.02     -0.42 
   -7    7    6      0.55      0.96 
   -6    7    6      0.43     -0.27 
   -5    7    6      1.19      1.62 
   -4    7    6      0.04     -0.05 
   -3    7    6      2.56      0.75 
   -2    7    6      0.17      2.04 
   -1    7    6     -0.98      1.46 
    0    7    6      2.09      4.64 
    1    7    6      2.63     -0.62 
    2    7    6      2.15      0.57 
    3    7    6      0.77     -1.41 
    4    7    6     -0.07     -1.28 
    5    7    6     -1.14     -1.50 
    6    7    6     -0.25     -0.39 
    7    7    6      0.09      0.33 
   -7    8    6      0.33      0.14 
   -6    8    6      1.39      0.02 
   -5    8    6      1.22     -1.68 
   -4    8    6      2.54      2.24 
   -3    8    6      0.60      0.58 
   -2    8    6      4.13      6.32 
   -1    8    6     -1.46     -0.22 
    0    8    6      2.11      1.88 
    1    8    6      1.09     -1.51 
    2    8    6      1.28     -0.03 
    3    8    6      1.10     -0.05 
    4    8    6     -0.69      0.15 
    5    8    6      0.31      1.27 
    6    8    6     -0.75      0.02 
    7    8    6     -0.77      0.03 
   -7    9    6     -0.36      0.39 
   -6    9    6      0.76      0.00 
   -5    9    6      0.01      0.00 
   -4    9    6      1.57     -0.27 
   -3    9    6      2.18      0.39 
   -2    9    6      0.54      0.81 
   -1    9    6      1.14     -0.43 
    0    9    6     -0.49      2.14 
    1    9    6      4.44      0.25 
    2    9    6      0.93     -0.37 
    3    9    6      2.48     -1.57 
    4    9    6      0.46     -1.88 
    5    9    6     -0.17     -2.62 
    6    9    6      0.40      0.10 
    7    9    6     -0.50     -0.12 
   -7   10    6     -1.04     -0.75 
   -6   10    6      0.10      1.37 
   -5   10    6      1.38     -0.66 
   -4   10    6      0.14      2.83 
   -3   10    6      0.82      0.96 
   -2   10    6     -1.01      7.70 
   -1   10    6     -0.63      0.02 
    0   10    6     -0.95      4.17 
    1   10    6      0.52      1.23 
    2   10    6      1.09      1.77 
    3   10    6     -1.10      1.33 
    4   10    6     -0.21      0.19 
    5   10    6     -2.04      0.90 
    6   10    6     -0.16     -0.35 
    7   10    6     -1.07     -0.40 
   -7   11    6     -0.19      0.04 
   -6   11    6     -0.18      0.30 
   -5   11    6      0.68     -0.76 
   -4   11    6      1.32      0.02 
   -3   11    6      1.63      0.50 
   -2   11    6      0.56      0.69 
   -1   11    6      1.14      1.52 
    0   11    6     -0.55      0.21 
    1   11    6      1.49      3.88 
    2   11    6      0.67     -0.04 
    3   11    6      1.09      0.86 
    4   11    6      0.34     -1.38 
    5   11    6      0.79     -1.44 
    6   11    6     -0.56      0.14 
   -7   12    6     -0.60     -1.51 
   -6   12    6     -1.13      0.89 
   -5   12    6      0.00     -0.82 
   -4   12    6     -0.53     -0.05 
   -3   12    6     -0.50     -0.81 
   -2   12    6     -4.45      1.21 
   -1   12    6     -1.49     -1.49 
    0   12    6     -3.54     -0.48 
    1   12    6     -1.44     -0.28 
    2   12    6     -0.52      1.29 
    3   12    6     -1.96     -1.27 
    4   12    6     -0.56      0.84 
    5   12    6     -1.82     -1.07 
    6   12    6     -0.39      0.45 
   -6   13    6     -0.63     -0.20 
   -5   13    6      0.97      0.25 
   -4   13    6      0.84     -0.17 
   -3   13    6      0.76      1.06 
   -2   13    6     -0.83      0.79 
   -1   13    6     -1.50      1.74 
    0   13    6     -0.37      0.58 
    1   13    6     -2.87      2.18 
    2   13    6     -0.77      1.67 
    3   13    6     -1.73      0.50 
    4   13    6     -0.19     -0.54 
    5   13    6      0.12     -0.02 
    6   13    6     -0.63     -0.63 
   -6   14    6     -0.86     -0.13 
   -5   14    6     -0.24     -1.79 
   -4   14    6      0.97     -0.84 
   -3   14    6      0.00     -2.79 
   -2   14    6     -1.33     -2.40 
   -1   14    6     -0.98     -3.21 
    0   14    6     -0.14     -3.12 
    1   14    6     -0.33     -1.72 
    2   14    6     -0.13      0.23 
    3   14    6      0.22     -1.46 
    4   14    6     -1.35      0.20 
    5   14    6      0.16     -0.46 
    6   14    6     -0.97      0.30 
   -6   15    6      0.12     -0.32 
   -5   15    6      0.23      1.11 
   -4   15    6      1.14      0.37 
   -3   15    6      0.29      1.60 
   -2   15    6     -1.59     -0.15 
   -1   15    6     -1.78      0.46 
    0   15    6     -0.86      0.76 
    1   15    6     -1.12     -0.76 
    2   15    6     -2.86      1.13 
    3   15    6     -0.76     -0.81 
    4   15    6     -1.04      0.07 
    5   15    6     -0.20      0.28 
   -5   16    6      0.53     -0.96 
   -4   16    6      0.63      0.69 
   -3   16    6      1.47     -1.57 
   -2   16    6      0.38      0.57 
   -1   16    6      0.62     -2.46 
    0   16    6      1.50      0.02 
    1   16    6      0.56     -0.36 
    2   16    6      0.31      0.98 
    3   16    6      0.07      0.40 
    4   16    6     -0.29     -0.92 
    5   16    6      0.17      0.78 
   -5   17    6     -0.58      0.73 
   -4   17    6      0.70      1.59 
   -3   17    6      0.31      1.66 
   -2   17    6     -0.33     -0.66 
   -1   17    6     -0.90      0.61 
    0   17    6     -0.25     -0.50 
    1   17    6      1.09      0.45 
    2   17    6     -2.19     -1.77 
    3   17    6      0.66      0.23 
    4   17    6     -1.13     -0.47 
    5   17    6      0.32      0.76 
   -4   18    6     -1.63      0.64 
   -3   18    6      0.60      0.63 
   -2   18    6     -1.52      2.31 
   -1   18    6      0.73     -0.19 
    0   18    6     -0.68      1.46 
    1   18    6     -0.27      0.57 
    2   18    6     -1.31      1.27 
    3   18    6     -1.28     -0.39 
    4   18    6      0.62     -0.24 
   -4   19    6     -0.49      1.48 
   -3   19    6      0.25      1.30 
   -2   19    6      0.67      0.31 
   -1   19    6     -1.27      0.89 
    0   19    6      0.98     -0.46 
    1   19    6     -0.10      1.37 
    2   19    6      0.64     -1.90 
    3   19    6      0.02      1.04 
    4   19    6      0.13      0.04 
   -3   20    6     -0.50      0.28 
   -2   20    6     -1.87      0.90 
   -1   20    6     -0.49      0.56 
    0   20    6     -1.36      0.20 
    1   20    6     -0.62      0.33 
    2   20    6     -2.26     -0.31 
    3   20    6     -0.07     -1.61 
   -2   21    6      0.25      0.88 
   -1   21    6     -1.56      0.01 
    0   21    6      0.20      0.08 
    1   21    6     -0.86      0.26 
    2   21    6      0.70     -0.10 
   -1   22    6     -0.59      0.25 
    0   22    6     -0.52      0.03 
   -7    0    7     -1.36     -0.01 
   -6    0    7     -1.62      0.01 
   -5    0    7     -3.67      0.03 
   -4    0    7     -3.97     -0.07 
   -3    0    7     -4.68      0.03 
   -2    0    7     -9.79      0.02 
   -1    0    7     -5.29      0.04 
    0    0    7     -2.80      0.01 
    1    0    7      4.40      0.10 
    2    0    7     -3.02     -0.02 
    3    0    7      1.59      0.01 
    4    0    7     -2.09     -0.01 
    5    0    7     -0.49      0.00 
    6    0    7     -1.02     -0.08 
    7    0    7     -1.72      0.00 
   -7    1    7     -0.82     -0.46 
   -6    1    7     -0.44     -0.89 
   -5    1    7     -0.92     -2.40 
   -4    1    7     -1.70     -1.08 
   -3    1    7     -1.05     -2.16 
   -2    1    7     -4.58      4.11 
   -1    1    7     -2.58     -3.57 
    0    1    7     -4.54     -1.83 
    1    1    7     -2.15     -5.86 
    2    1    7     -1.83     -4.15 
    3    1    7     -1.77     -2.73 
    4    1    7      0.22     -3.69 
    5    1    7     -0.51     -0.60 
    6    1    7      0.46     -1.21 
    7    1    7      0.38     -1.12 
   -7    2    7     -0.21     -0.83 
   -6    2    7     -2.21      0.46 
   -5    2    7     -1.18     -1.46 
   -4    2    7     -4.41     -0.01 
   -3    2    7     -1.56     -1.45 
   -2    2    7     -7.61     -1.36 
   -1    2    7     -4.73      1.50 
    0    2    7     -2.08      2.41 
    1    2    7      1.11      6.43 
    2    2    7     -1.51     -0.26 
    3    2    7     -0.36      2.47 
    4    2    7     -1.67     -0.02 
    5    2    7     -0.56      0.30 
    6    2    7     -1.06      0.25 
    7    2    7     -0.27     -1.40 
   -7    3    7     -0.65     -1.09 
   -6    3    7     -0.59     -1.43 
   -5    3    7     -1.07     -3.00 
   -4    3    7     -2.02     -3.13 
   -3    3    7     -2.61     -2.04 
   -2    3    7     -7.00     -1.65 
   -1    3    7     -4.81     -4.63 
    0    3    7     -5.68     -7.70 
    1    3    7     -2.98     -7.48 
    2    3    7     -2.10     -5.67 
    3    3    7     -2.32     -5.28 
    4    3    7      0.72     -3.53 
    5    3    7     -0.73     -2.05 
    6    3    7      0.64     -0.85 
    7    3    7      0.54     -1.14 
   -7    4    7      0.52      0.70 
   -6    4    7     -1.74     -0.11 
   -5    4    7      0.74      1.37 
   -4    4    7     -3.19     -1.35 
   -3    4    7      1.47      1.89 
   -2    4    7     -3.88     -0.83 
   -1    4    7     -3.37      1.74 
    0    4    7     -1.75      4.72 
    1    4    7     -1.68      5.52 
    2    4    7      0.57      2.11 
    3    4    7     -1.26      1.29 
    4    4    7     -0.29      0.40 
    5    4    7     -0.16     -0.19 
    6    4    7     -0.85     -0.12 
    7    4    7      1.30     -0.30 
   -7    5    7      0.43      0.19 
   -6    5    7      0.78     -1.15 
   -5    5    7      0.95     -2.30 
   -4    5    7      0.88     -1.84 
   -3    5    7     -1.88     -2.03 
   -2    5    7     -2.30     -1.25 
   -1    5    7     -3.20     -4.50 
    0    5    7      0.52     -6.03 
    1    5    7      0.20     -5.93 
    2    5    7      0.70     -3.73 
    3    5    7      0.76     -4.51 
    4    5    7      1.08     -2.61 
    5    5    7      0.53     -2.00 
    6    5    7     -0.31     -1.12 
    7    5    7      0.22     -1.03 
   -7    6    7     -0.71      1.27 
   -6    6    7     -0.54      0.41 
   -5    6    7     -1.08      2.58 
   -4    6    7     -0.75     -0.57 
   -3    6    7     -0.28      4.13 
   -2    6    7     -2.33      0.28 
   -1    6    7     -1.96      1.06 
    0    6    7     -3.75      4.42 
    1    6    7     -0.59      3.92 
    2    6    7     -1.11      3.96 
    3    6    7      0.37      1.13 
    4    6    7     -0.07      1.18 
    5    6    7      0.78     -0.78 
    6    6    7     -0.49     -0.43 
    7    6    7      0.18      0.62 
   -7    7    7     -0.26      0.79 
   -6    7    7      0.85      0.53 
   -5    7    7      1.90      0.24 
   -4    7    7      0.37      1.69 
   -3    7    7     -0.52     -0.22 
   -2    7    7     -2.77      3.67 
   -1    7    7     -0.99     -2.44 
    0    7    7      0.80      0.58 
    1    7    7      1.66     -1.39 
    2    7    7      1.02      0.20 
    3    7    7      1.16     -0.50 
    4    7    7      0.92     -1.05 
    5    7    7      0.21      0.08 
    6    7    7     -0.17     -1.34 
    7    7    7     -0.21     -0.60 
   -7    8    7     -0.72      0.05 
   -6    8    7     -0.36      0.50 
   -5    8    7     -1.09      0.54 
   -4    8    7     -0.15      0.95 
   -3    8    7     -1.32      2.46 
   -2    8    7     -1.73      0.07 
   -1    8    7     -0.49      0.73 
    0    8    7     -3.83      0.54 
    1    8    7     -0.49      4.06 
    2    8    7     -1.97      1.20 
    3    8    7      1.14      2.11 
    4    8    7      0.28      0.05 
    5    8    7      2.14     -0.53 
    6    8    7     -0.26     -0.46 
    7    8    7     -0.53     -0.18 
   -7    9    7     -0.24     -0.69 
   -6    9    7     -0.89      0.62 
   -5    9    7      0.72      1.32 
   -4    9    7     -1.90      1.50 
   -3    9    7     -0.89      1.10 
   -2    9    7     -6.62      2.20 
   -1    9    7     -0.70     -0.74 
    0    9    7     -3.29      0.86 
    1    9    7     -0.57      0.87 
    2    9    7     -1.09      1.11 
    3    9    7     -1.19     -0.04 
    4    9    7      0.38      0.00 
    5    9    7     -1.04     -0.56 
    6    9    7      0.73     -0.60 
   -7   10    7      0.13     -0.20 
   -6   10    7     -0.07     -0.41 
   -5   10    7      0.84      0.07 
   -4   10    7      0.05      0.91 
   -3   10    7      0.31      1.43 
   -2   10    7     -0.46     -0.23 
   -1   10    7      0.09      0.94 
    0   10    7     -0.65     -1.38 
    1   10    7     -2.40      2.42 
    2   10    7      0.14     -0.37 
    3   10    7      0.02      1.78 
    4   10    7      1.77     -0.33 
    5   10    7      1.95      0.85 
    6   10    7      0.00     -0.56 
   -6   11    7     -1.40     -0.62 
   -5   11    7      0.25      0.28 
   -4   11    7     -0.87      0.00 
   -3   11    7     -0.23      0.13 
   -2   11    7     -3.85     -3.04 
   -1   11    7     -0.11     -1.45 
    0   11    7     -1.49     -3.23 
    1   11    7     -1.42     -0.99 
    2   11    7     -1.17     -0.59 
    3   11    7     -0.43     -2.12 
    4   11    7     -0.59      0.19 
    5   11    7      0.17     -1.84 
    6   11    7      0.09      0.18 
   -6   12    7      0.55     -0.89 
   -5   12    7      1.00      1.02 
   -4   12    7      0.67      0.54 
   -3   12    7      0.48      2.25 
   -2   12    7      0.14     -0.43 
   -1   12    7     -0.17      0.41 
    0   12    7      0.43     -0.24 
    1   12    7     -2.20     -1.19 
    2   12    7     -0.53      0.02 
    3   12    7     -0.61     -0.77 
    4   12    7      1.35      0.16 
    5   12    7      0.17      0.63 
    6   12    7      0.51     -0.69 
   -6   13    7     -0.54     -0.97 
   -5   13    7      1.27     -0.47 
   -4   13    7      0.65      0.55 
   -3   13    7      1.80     -0.32 
   -2   13    7      1.54     -2.78 
   -1   13    7      1.96     -2.05 
    0   13    7      3.41     -1.76 
    1   13    7      0.60     -1.62 
    2   13    7      0.58     -0.18 
    3   13    7      1.49     -1.18 
    4   13    7     -0.86     -0.85 
    5   13    7      0.86     -0.54 
   -6   14    7      0.73     -0.30 
   -5   14    7     -0.32      1.18 
   -4   14    7      0.47      0.84 
   -3   14    7     -1.77      2.02 
   -2   14    7      0.20     -1.03 
   -1   14    7     -0.63     -0.21 
    0   14    7     -0.96      0.11 
    1   14    7      0.19     -1.25 
    2   14    7     -2.24     -1.54 
    3   14    7      0.66     -1.30 
    4   14    7      0.06     -0.58 
    5   14    7     -0.42     -0.39 
   -5   15    7      1.52      0.25 
   -4   15    7      0.05      0.88 
   -3   15    7      1.93      0.67 
   -2   15    7      0.91     -0.01 
   -1   15    7      2.91     -0.92 
    0   15    7      2.05      2.25 
    1   15    7      0.87     -0.09 
    2   15    7      0.01      1.56 
    3   15    7      0.63      0.35 
    4   15    7      0.78     -0.94 
    5   15    7     -0.08      0.41 
   -5   16    7     -1.16      0.09 
   -4   16    7     -0.86      0.70 
   -3   16    7     -2.83      0.12 
   -2   16    7      0.37     -0.95 
   -1   16    7     -1.01     -0.81 
    0   16    7     -0.74     -0.52 
    1   16    7      0.07      0.95 
    2   16    7     -0.48     -3.00 
    3   16    7      0.42      0.21 
    4   16    7      0.30     -1.43 
   -4   17    7     -0.60     -0.59 
   -3   17    7      0.07      0.68 
   -2   17    7     -1.95     -0.79 
   -1   17    7      1.73      0.41 
    0   17    7     -1.47      1.45 
    1   17    7     -0.32      0.22 
    2   17    7     -1.59      0.66 
    3   17    7     -0.13     -0.43 
    4   17    7      1.24      0.50 
   -4   18    7     -1.15     -0.39 
   -3   18    7     -1.42     -0.61 
   -2   18    7      0.13     -0.25 
   -1   18    7     -0.48     -1.31 
    0   18    7      0.64      0.27 
    1   18    7     -0.87      0.76 
    2   18    7      2.01     -1.05 
    3   18    7     -0.39      0.31 
   -3   19    7     -0.37     -0.33 
   -2   19    7     -1.40     -2.08 
   -1   19    7      0.24      0.31 
    0   19    7     -1.21     -0.62 
    1   19    7     -0.49     -0.29 
    2   19    7     -0.81     -1.35 
    3   19    7      0.93     -0.72 
   -2   20    7     -0.35      0.02 
   -1   20    7      0.23     -1.17 
    0   20    7      0.41      0.78 
    1   20    7     -0.47     -0.22 
    2   20    7      1.10      0.89 
    0   21    7     -0.13     -0.45 
   -7    0    8     -0.12      0.03 
   -6    0    8      1.40      0.00 
   -5    0    8      1.46     -0.07 
   -4    0    8      2.64      0.04 
   -3    0    8      1.71      0.04 
   -2    0    8     -3.03      0.17 
   -1    0    8      2.62     -0.11 
    0    0    8     -0.69      0.04 
    1    0    8      3.30     -0.01 
    2    0    8      2.06      0.01 
    3    0    8      2.03      0.08 
    4    0    8      2.82     -0.03 
    5    0    8      0.51      0.03 
    6    0    8      1.22     -0.15 
    7    0    8      0.86     -0.01 
   -7    1    8      0.51     -0.85 
   -6    1    8     -0.33     -1.82 
   -5    1    8      1.23     -2.27 
   -4    1    8     -0.16     -4.05 
   -3    1    8      1.53     -3.43 
   -2    1    8      0.75     -9.12 
   -1    1    8      0.61     -5.97 
    0    1    8      0.04     -4.01 
    1    1    8     -2.56      1.66 
    2    1    8      0.93     -2.58 
    3    1    8     -1.22      0.46 
    4    1    8      0.32     -1.69 
    5    1    8     -0.08     -0.71 
    6    1    8     -0.03     -0.87 
    7    1    8      0.52     -0.70 
   -7    2    8      0.35     -0.72 
   -6    2    8      1.08     -0.02 
   -5    2    8      2.01     -1.26 
   -4    2    8      2.85     -0.75 
   -3    2    8      1.18     -1.48 
   -2    2    8     -0.46     -5.03 
   -1    2    8      2.16     -2.52 
    0    2    8      3.82     -6.10 
    1    2    8      3.88     -2.71 
    2    2    8      4.24     -2.79 
    3    2    8      2.96     -1.44 
    4    2    8      3.50      0.18 
    5    2    8      0.98     -0.14 
    6    2    8      1.24      0.75 
    7    2    8      0.50      0.70 
   -7    3    8      0.10      0.30 
   -6    3    8     -0.20     -1.71 
   -5    3    8      0.46      0.98 
   -4    3    8      0.73     -3.68 
   -3    3    8      0.19      1.47 
   -2    3    8      1.30     -5.60 
   -1    3    8     -0.11     -2.31 
    0    3    8     -1.82     -0.97 
    1    3    8     -4.54     -0.03 
    2    3    8     -0.26      0.72 
    3    3    8     -1.39     -0.91 
    4    3    8      0.03     -0.01 
    5    3    8      0.22     -0.47 
    6    3    8      0.03     -0.58 
   -7    4    8      0.19     -0.05 
   -6    4    8      1.09      0.06 
   -5    4    8      2.33     -0.17 
   -4    4    8      2.48      0.55 
   -3    4    8      0.93     -2.27 
   -2    4    8      1.61     -3.29 
   -1    4    8      1.68     -3.74 
    0    4    8      6.84     -1.79 
    1    4    8      4.16     -2.51 
    2    4    8      4.78     -0.09 
    3    4    8      3.60     -0.73 
    4    4    8      3.51      1.37 
    5    4    8      1.82      0.10 
    6    4    8      1.25      0.46 
   -7    5    8     -1.16     -0.20 
   -6    5    8     -0.57     -0.90 
   -5    5    8     -2.63      0.65 
   -4    5    8      0.65     -1.34 
   -3    5    8     -4.32      1.53 
   -2    5    8      0.05     -2.57 
   -1    5    8     -2.09     -0.89 
    0    5    8     -4.68     -1.08 
    1    5    8     -4.43     -0.25 
    2    5    8     -4.27      0.29 
    3    5    8     -1.19     -0.25 
    4    5    8     -1.96      0.40 
    5    5    8      0.57      0.46 
    6    5    8      0.07     -0.27 
   -7    6    8     -0.57     -0.09 
   -6    6    8      0.64      0.61 
   -5    6    8      0.77      1.38 
   -4    6    8      0.01      1.62 
   -3    6    8      0.48     -1.29 
   -2    6    8     -1.47     -1.19 
   -1    6    8      1.66     -2.94 
    0    6    8      1.86      1.72 
    1    6    8      2.95     -0.68 
    2    6    8      1.19      1.47 
    3    6    8      2.21      0.34 
    4    6    8      1.83      1.71 
    5    6    8      1.02      0.69 
    6    6    8      1.44     -0.01 
   -7    7    8     -0.53     -0.98 
   -6    7    8     -0.77     -0.94 
   -5    7    8     -1.93     -1.45 
   -4    7    8     -1.12     -0.64 
   -3    7    8     -3.89     -1.66 
   -2    7    8     -0.57     -2.18 
   -1    7    8     -1.60     -1.43 
    0    7    8     -3.10     -3.56 
    1    7    8     -4.25     -0.80 
    2    7    8     -3.24     -3.04 
    3    7    8     -1.91      0.27 
    4    7    8     -1.36     -1.07 
    5    7    8      0.47      1.51 
    6    7    8      0.37     -0.44 
   -6    8    8     -0.11     -0.12 
   -5    8    8     -0.81      0.96 
   -4    8    8     -1.55      0.10 
   -3    8    8     -0.80     -0.78 
   -2    8    8     -2.98     -3.65 
   -1    8    8      0.95     -1.61 
    0    8    8     -1.16     -1.14 
    1    8    8      0.55     -0.04 
    2    8    8     -0.71     -0.16 
    3    8    8      0.64     -0.15 
    4    8    8      0.23      1.13 
    5    8    8     -0.12      0.00 
    6    8    8      1.10      0.71 
   -6    9    8      0.34     -0.64 
   -5    9    8      0.03     -0.30 
   -4    9    8     -1.04     -0.87 
   -3    9    8     -1.09     -0.62 
   -2    9    8      0.41     -1.38 
   -1    9    8     -0.06     -0.33 
    0    9    8      0.66     -2.25 
    1    9    8     -2.48     -1.89 
    2    9    8      0.54     -1.62 
    3    9    8     -1.69      0.16 
    4    9    8      0.86      0.37 
    5    9    8     -0.62      2.02 
    6    9    8      0.71     -0.03 
   -6   10    8      0.26     -1.05 
   -5   10    8     -0.70      0.07 
   -4   10    8     -0.83     -0.52 
   -3   10    8     -0.88     -0.77 
   -2   10    8      0.58     -4.10 
   -1   10    8      0.80     -1.07 
    0   10    8      1.67     -2.21 
    1   10    8     -0.02     -1.43 
    2   10    8      0.34     -1.03 
    3   10    8      1.16     -0.82 
    4   10    8     -0.69      0.12 
    5   10    8      0.67     -0.49 
    6   10    8     -0.17      0.90 
   -6   11    8      1.08      0.39 
   -5   11    8     -0.36      1.27 
   -4   11    8     -0.14      0.23 
   -3   11    8     -1.88      1.69 
   -2   11    8      0.76      0.33 
   -1   11    8     -0.08      1.38 
    0   11    8      0.86      0.51 
    1   11    8      0.46     -1.49 
    2   11    8      0.48      0.37 
    3   11    8     -0.11     -0.19 
    4   11    8      0.45      1.85 
    5   11    8     -1.12      0.59 
   -6   12    8      0.54     -0.77 
   -5   12    8      0.09      0.34 
   -4   12    8     -0.76      0.42 
   -3   12    8     -0.11      0.28 
   -2   12    8      2.60     -0.12 
   -1   12    8      1.67      0.18 
    0   12    8      2.77      1.93 
    1   12    8      1.25     -1.04 
    2   12    8      0.69      0.61 
    3   12    8      1.60      0.51 
    4   12    8     -0.31     -0.97 
    5   12    8      0.99      0.24 
   -5   13    8     -1.21      0.82 
   -4   13    8     -0.29      1.06 
   -3   13    8     -3.42     -0.19 
   -2   13    8      0.58      0.80 
   -1   13    8     -1.00      0.92 
    0   13    8     -0.60     -0.09 
    1   13    8      1.16      0.30 
    2   13    8      0.17     -1.42 
    3   13    8      1.20      0.46 
    4   13    8      0.17      0.82 
    5   13    8      0.05     -0.39 
   -5   14    8      0.05      1.05 
   -4   14    8     -1.04      0.36 
   -3   14    8      0.02      1.09 
   -2   14    8      0.90      1.29 
   -1   14    8      1.81      1.67 
    0   14    8     -0.91      3.38 
    1   14    8      0.76      0.13 
    2   14    8     -1.40      1.17 
    3   14    8      0.00      1.16 
    4   14    8      0.66     -0.31 
   -4   15    8     -0.69      0.22 
   -3   15    8     -1.44     -3.10 
   -2   15    8      0.67      0.41 
   -1   15    8     -0.39     -0.88 
    0   15    8     -0.25     -1.42 
    1   15    8     -0.54      0.40 
    2   15    8      1.93     -2.24 
    3   15    8      0.32      0.71 
    4   15    8      0.95      0.26 
   -4   16    8     -0.21     -0.22 
   -3   16    8     -0.14      0.41 
   -2   16    8      0.61     -0.97 
   -1   16    8      0.82      2.04 
    0   16    8     -2.35      0.05 
    1   16    8      0.01     -0.30 
    2   16    8     -1.90     -0.74 
    3   16    8     -0.49      0.04 
    4   16    8      0.16      1.17 
   -3   17    8      1.04     -2.14 
   -2   17    8      0.63      0.08 
   -1   17    8      1.08     -0.64 
    0   17    8      0.11     -0.32 
    1   17    8     -0.93     -0.40 
    2   17    8      2.20      0.14 
    3   17    8     -0.20     -0.01 
   -3   18    8      0.25     -0.31 
   -2   18    8      1.91     -1.48 
   -1   18    8     -0.24      1.18 
    0   18    8     -0.49     -1.39 
    1   18    8      0.14     -0.58 
    2   18    8      0.01     -1.32 
   -2   19    8      0.47     -0.12 
   -1   19    8      0.95      0.56 
    0   19    8     -0.67      0.57 
    1   19    8     -0.36     -0.20 
   -6    0    9      1.25     -0.09 
   -5    0    9      2.36     -0.02 
   -4    0    9      3.23      0.03 
   -3    0    9      4.15      0.03 
   -2    0    9      7.95      0.00 
   -1    0    9      7.26     -0.01 
    0    0    9      4.79     -0.02 
    1    0    9      0.42     -0.21 
    2    0    9      2.94     -0.02 
    3    0    9     -0.54     -0.11 
    4    0    9      1.34     -0.03 
    5    0    9      1.04      0.05 
    6    0    9      0.58      0.06 
   -6    1    9     -0.36      1.53 
   -5    1    9      0.69      0.96 
   -4    1    9     -0.39      3.78 
   -3    1    9      0.53      1.07 
   -2    1    9      1.83     -0.34 
   -1    1    9      0.41      1.69 
    0    1    9      3.12      0.71 
    1    1    9      0.77      2.20 
    2    1    9      1.87      1.61 
    3    1    9     -0.03      2.54 
    4    1    9      0.14      2.25 
    5    1    9     -0.39      1.02 
    6    1    9     -0.30      1.05 
   -6    2    9      1.39     -0.35 
   -5    2    9      0.34      1.40 
   -4    2    9      3.42     -0.13 
   -3    2    9      0.73      1.56 
   -2    2    9      6.61      0.41 
   -1    2    9      3.75      1.78 
    0    2    9      2.37      0.21 
    1    2    9      0.06     -1.60 
    2    2    9      0.49      1.12 
    3    2    9      0.25     -1.03 
    4    2    9      0.24      0.42 
    5    2    9      0.91      0.24 
    6    2    9      0.41      0.06 
   -6    3    9     -0.21      0.73 
   -5    3    9      0.79      1.41 
   -4    3    9     -0.78      2.38 
   -3    3    9      1.64      0.15 
   -2    3    9      3.10      0.90 
   -1    3    9      1.88     -0.24 
    0    3    9      3.16      4.98 
    1    3    9      2.06      1.63 
    2    3    9      1.34      4.20 
    3    3    9      0.08      2.21 
    4    3    9     -0.77      3.31 
    5    3    9     -0.62      1.05 
    6    3    9     -0.74      1.24 
   -6    4    9      0.91     -0.41 
   -5    4    9     -1.54     -0.84 
   -4    4    9      1.94      0.40 
   -3    4    9     -2.36     -2.46 
   -2    4    9      3.61      0.28 
   -1    4    9      0.15     -1.20 
    0    4    9     -0.12     -2.72 
    1    4    9     -0.48     -3.12 
    2    4    9     -1.33     -2.53 
    3    4    9      0.50     -1.00 
    4    4    9     -1.00     -1.39 
    5    4    9      0.07      0.62 
    6    4    9     -0.18      0.08 
   -6    5    9      0.02      0.84 
   -5    5    9     -0.38      0.83 
   -4    5    9     -1.29      0.92 
   -3    5    9      1.85     -0.30 
   -2    5    9      1.58      0.18 
   -1    5    9      3.42     -0.52 
    0    5    9     -0.98      3.36 
    1    5    9      2.49      1.82 
    2    5    9     -1.26      2.27 
    3    5    9      0.52      2.00 
    4    5    9     -1.75      2.40 
    5    5    9     -0.51      1.04 
    6    5    9     -0.42      1.14 
   -6    6    9      0.83     -0.85 
   -5    6    9      0.27     -2.45 
   -4    6    9      0.63     -1.18 
   -3    6    9      0.60     -4.90 
   -2    6    9      2.02     -0.68 
   -1    6    9      1.48     -2.60 
    0    6    9      1.60     -4.15 
    1    6    9      0.37     -3.95 
    2    6    9      1.90     -4.56 
    3    6    9      0.29     -1.56 
    4    6    9      0.69     -2.59 
    5    6    9     -0.92      0.51 
    6    6    9     -0.11     -0.07 
   -6    7    9     -0.06      0.71 
   -5    7    9     -0.65     -0.23 
   -4    7    9     -1.16     -0.40 
   -3    7    9      1.37     -0.65 
   -2    7    9      1.67     -1.52 
   -1    7    9      2.87      0.48 
    0    7    9     -0.30     -0.21 
    1    7    9      1.09      1.82 
    2    7    9     -0.52     -0.16 
    3    7    9      0.10      1.84 
    4    7    9     -1.51      0.86 
    5    7    9     -0.60      0.22 
   -6    8    9      1.01     -0.17 
   -5    8    9      1.16     -0.74 
   -4    8    9      1.41     -1.84 
   -3    8    9      2.09     -1.81 
   -2    8    9      1.85     -0.32 
   -1    8    9      1.76     -0.06 
    0    8    9      2.67     -1.39 
    1    8    9      1.63     -2.65 
    2    8    9      3.17     -1.17 
    3    8    9      0.20     -1.46 
    4    8    9      1.29     -0.19 
    5    8    9     -1.65     -0.17 
   -6    9    9      0.45      0.46 
   -5    9    9     -0.20     -0.55 
   -4    9    9     -0.58     -0.70 
   -3    9    9      0.97     -0.90 
   -2    9    9      2.57     -0.49 
   -1    9    9      1.55      0.59 
    0    9    9      1.65      0.62 
    1    9    9      0.63      0.31 
    2    9    9      0.62     -0.01 
    3    9    9     -0.08      0.93 
    4    9    9     -0.95     -0.40 
    5    9    9      0.03     -0.35 
   -5   10    9     -0.44      0.09 
   -4   10    9      1.02     -0.45 
   -3   10    9     -1.02     -0.52 
   -2   10    9      0.46      0.75 
   -1   10    9     -1.12      1.24 
    0   10    9      0.41      0.69 
    1   10    9      1.21      0.13 
    2   10    9      0.49      0.88 
    3   10    9     -0.15     -0.55 
    4   10    9     -0.83      1.05 
    5   10    9     -1.05     -1.08 
   -5   11    9      0.01     -0.41 
   -4   11    9     -0.78     -0.90 
   -3   11    9      0.53     -0.79 
   -2   11    9      0.80      1.42 
   -1   11    9      0.68      0.62 
    0   11    9     -0.36      2.44 
    1   11    9      1.32      0.18 
    2   11    9     -0.01      0.70 
    3   11    9      0.03      0.94 
    4   11    9      0.17     -0.94 
    5   11    9      0.44      0.40 
   -5   12    9     -1.03     -0.60 
   -4   12    9     -0.56      0.28 
   -3   12    9     -1.55     -2.86 
   -2   12    9     -0.97      0.76 
   -1   12    9     -2.48     -0.50 
    0   12    9     -0.70     -0.34 
    1   12    9     -0.61      1.27 
    2   12    9      0.13      0.04 
    3   12    9     -0.45      0.48 
    4   12    9     -1.23      0.42 
   -4   13    9     -0.62     -1.26 
   -3   13    9      0.16     -0.18 
   -2   13    9     -0.89      1.05 
   -1   13    9     -0.08      1.17 
    0   13    9     -2.93      0.65 
    1   13    9      0.81      0.50 
    2   13    9     -1.31     -0.37 
    3   13    9     -0.86      0.38 
    4   13    9      0.69     -0.34 
   -4   14    9     -0.95     -0.27 
   -3   14    9      1.72     -2.72 
   -2   14    9     -0.96      0.42 
   -1   14    9     -0.28     -1.39 
    0   14    9      0.86     -1.02 
    1   14    9     -0.82     -0.03 
    2   14    9      1.98      0.42 
    3   14    9     -0.55      0.48 
   -3   15    9      0.01      0.33 
   -2   15    9      0.23      0.59 
   -1   15    9     -0.95      1.44 
    0   15    9     -1.46     -1.66 
    1   15    9      0.64      0.24 
    2   15    9     -0.46     -1.73 
    3   15    9     -0.51     -0.76 
   -3   16    9      2.52      0.30 
   -2   16    9     -0.33      0.36 
   -1   16    9      0.90      0.34 
    0   16    9      1.12     -0.29 
    1   16    9      0.13     -0.58 
    2   16    9      1.54      1.70 
   -2   17    9      1.23      1.47 
   -1   17    9     -1.32      0.50 
    0   17    9      0.70     -1.03 
    1   17    9      0.59      0.35 
    0   18    9     -0.08     -0.48 
   -6    0   10     -1.75      0.01 
   -5    0   10     -0.64      0.00 
   -4    0   10     -4.48     -0.06 
   -3    0   10     -0.96      0.01 
   -2    0   10     -1.22      0.01 
   -1    0   10     -1.43      0.08 
    0    0   10     -0.23      0.00 
    1    0   10     -1.92      0.09 
    2    0   10     -0.24     -0.06 
    3    0   10     -2.90      0.10 
    4    0   10     -1.06     -0.06 
    5    0   10     -1.41      0.07 
   -6    1   10      0.36      0.63 
   -5    1   10     -0.84      1.46 
   -4    1   10      0.40      2.44 
   -3    1   10     -1.06      2.80 
   -2    1   10      0.37      5.34 
   -1    1   10     -1.80      6.10 
    0    1   10     -0.32      3.24 
    1    1   10     -0.38      1.97 
    2    1   10     -0.94      1.77 
    3    1   10      0.40     -0.33 
    4    1   10     -0.29      0.43 
    5    1   10     -0.03      0.96 
   -6    2   10     -1.01     -0.51 
   -5    2   10     -0.74      0.57 
   -4    2   10     -2.87     -1.29 
   -3    2   10     -0.27      0.84 
   -2    2   10     -0.71      1.24 
   -1    2   10      0.11      0.11 
    0    2   10     -2.19      2.41 
    1    2   10     -0.83      0.19 
    2    2   10     -2.13      1.81 
    3    2   10     -2.06     -1.02 
    4    2   10     -1.95     -0.01 
    5    2   10     -1.04     -1.05 
   -6    3   10      0.35      0.78 
   -5    3   10     -0.82     -0.51 
   -4    3   10      0.12      2.18 
   -3    3   10      0.15     -0.91 
   -2    3   10      0.36      4.14 
   -1    3   10     -0.94      1.06 
    0    3   10      0.89      0.60 
    1    3   10      0.56     -0.31 
    2    3   10      0.31     -0.86 
    3    3   10      0.70      0.14 
    4    3   10      0.43     -0.88 
    5    3   10     -0.34      0.64 
   -5    4   10     -0.33      0.02 
   -4    4   10     -0.80     -0.96 
   -3    4   10      0.83      1.49 
   -2    4   10     -0.17      1.93 
   -1    4   10      1.70      2.03 
    0    4   10     -3.09      0.43 
    1    4   10      0.00      1.84 
    2    4   10     -2.57     -0.22 
    3    4   10     -1.04     -0.08 
    4    4   10     -2.25     -1.02 
    5    4   10     -0.53     -0.78 
   -5    5   10      1.09     -0.79 
   -4    5   10      0.70      0.70 
   -3    5   10      3.83     -0.67 
   -2    5   10      0.45      2.19 
   -1    5   10      2.41      0.76 
    0    5   10      3.11      0.32 
    1    5   10      2.71     -0.34 
    2    5   10      3.66      0.18 
    3    5   10      1.13      0.37 
    4    5   10      2.32     -0.36 
    5    5   10     -0.48     -0.15 
   -5    6   10      0.39     -0.20 
   -4    6   10     -0.29     -0.73 
   -3    6   10      1.12      1.86 
   -2    6   10     -0.01      1.64 
   -1    6   10      0.59      3.19 
    0    6   10     -1.00     -0.39 
    1    6   10     -1.28      2.16 
    2    6   10     -0.51     -0.63 
    3    6   10     -1.79      0.54 
    4    6   10     -1.31     -1.17 
    5    6   10     -0.36     -0.47 
   -5    7   10      1.16      0.67 
   -4    7   10      2.01      0.90 
   -3    7   10      2.91      2.30 
   -2    7   10      0.70      1.45 
   -1    7   10      0.93      2.67 
    0    7   10      2.45      1.67 
    1    7   10      2.53      1.04 
    2    7   10      2.93      2.80 
    3    7   10      1.31      0.45 
    4    7   10      1.62      1.31 
    5    7   10     -0.19     -0.88 
   -5    8   10      0.37      0.00 
   -4    8   10     -0.17     -1.01 
   -3    8   10      0.64      1.56 
   -2    8   10     -0.16      1.28 
   -1    8   10     -0.66      2.05 
    0    8   10     -0.62      0.91 
    1    8   10     -1.23      0.65 
    2    8   10     -0.04      0.20 
    3    8   10     -1.45     -0.60 
    4    8   10     -0.38     -1.16 
   -5    9   10      0.04      0.29 
   -4    9   10      1.34      1.44 
   -3    9   10     -0.11      0.85 
   -2    9   10     -0.02      0.90 
   -1    9   10     -1.91      0.52 
    0    9   10      0.32      0.87 
    1    9   10      0.42      1.08 
    2    9   10      0.14      1.91 
    3    9   10      0.76      0.00 
    4    9   10     -0.42      0.57 
   -4   10   10      0.40     -1.26 
   -3   10   10      0.62      0.74 
   -2   10   10     -0.74      0.39 
   -1   10   10     -0.31      0.65 
    0   10   10     -1.77      0.33 
    1   10   10      0.00      0.54 
    2   10   10     -0.32      0.20 
    3   10   10     -0.29     -0.44 
    4   10   10      0.58     -0.70 
   -4   11   10      0.01      0.51 
   -3   11   10      0.91     -1.71 
   -2   11   10     -0.70     -0.32 
   -1   11   10     -1.07     -2.54 
    0   11   10      0.15     -0.77 
    1   11   10     -1.20     -0.54 
    2   11   10     -0.40      0.13 
    3   11   10      0.12     -0.52 
    4   11   10     -0.66     -0.67 
   -4   12   10      1.08     -0.94 
   -3   12   10      0.68      0.58 
   -2   12   10     -0.60     -0.65 
   -1   12   10      0.03      0.44 
    0   12   10     -1.19     -1.67 
    1   12   10      0.19      0.83 
    2   12   10     -0.21     -0.56 
    3   12   10     -0.21     -0.31 
   -3   13   10      2.46     -0.15 
   -2   13   10     -0.65     -1.12 
   -1   13   10      1.10     -1.71 
    0   13   10      1.13     -0.15 
    1   13   10     -0.40     -1.28 
    2   13   10      0.06      0.76 
    3   13   10     -0.06     -0.41 
   -3   14   10     -0.08      0.64 
   -2   14   10     -0.33     -0.22 
   -1   14   10     -0.82      0.31 
    0   14   10      0.53     -1.66 
    1   14   10      0.01      0.81 
    2   14   10      0.67     -0.87 
   -2   15   10     -0.16     -0.91 
   -1   15   10      0.46      0.54 
    0   15   10      0.84      1.03 
    1   15   10      0.30     -0.10 
   -5    0   11     -1.32     -0.08 
   -4    0   11     -1.38      0.06 
   -3    0   11     -2.73     -0.04 
   -2    0   11     -2.95      0.02 
   -1    0   11     -6.23     -0.04 
    0    0   11     -2.45     -0.01 
    1    0   11     -3.24      0.09 
    2    0   11     -1.79      0.05 
    3    0   11      0.51      0.03 
    4    0   11     -0.32      0.02 
   -5    1   11     -0.21     -0.65 
   -4    1   11      0.88     -3.40 
   -3    1   11     -0.29     -0.64 
   -2    1   11      0.28     -1.62 
   -1    1   11      0.41     -0.66 
    0    1   11     -0.60     -0.72 
    1    1   11      0.55     -1.20 
    2    1   11     -0.94     -0.36 
    3    1   11      0.80     -2.32 
    4    1   11     -0.17     -0.46 
   -5    2   11     -0.73     -0.81 
   -4    2   11     -1.67      0.49 
   -3    2   11     -1.21     -0.50 
   -2    2   11     -3.09      1.04 
   -1    2   11     -3.18     -1.98 
    0    2   11     -1.42      0.22 
    1    2   11     -1.22     -1.22 
    2    2   11     -0.40     -0.77 
    3    2   11      0.34      0.23 
    4    2   11      0.35     -0.16 
   -5    3   11      0.11     -0.31 
   -4    3   11      1.19     -0.98 
   -3    3   11     -0.75      0.42 
   -2    3   11     -0.63      0.31 
   -1    3   11     -0.30      1.20 
    0    3   11     -0.82     -1.38 
    1    3   11     -0.07      0.54 
    2    3   11     -0.79     -1.62 
    3    3   11      1.04     -0.74 
    4    3   11      0.17     -1.31 
   -4    4   11     -0.95      0.33 
   -3    4   11      0.39      1.42 
   -2    4   11     -2.34      0.66 
   -1    4   11     -0.40      0.65 
    0    4   11     -0.35      1.53 
    1    4   11      0.55      0.75 
    2    4   11      0.48      1.41 
    3    4   11     -0.01      0.66 
    4    4   11      0.82      1.09 
   -4    5   11      0.30      0.06 
   -3    5   11     -1.41      1.32 
   -2    5   11     -2.02      0.18 
   -1    5   11     -2.13      1.16 
    0    5   11     -0.48     -1.24 
    1    5   11     -1.80      0.10 
    2    5   11     -0.01     -0.89 
    3    5   11     -0.39     -0.78 
    4    5   11      0.48     -1.09 
   -4    6   11     -0.35      1.25 
   -3    6   11     -1.18      2.58 
   -2    6   11     -1.13      0.47 
   -1    6   11     -2.01      1.59 
    0    6   11     -0.72      1.88 
    1    6   11     -0.31      1.87 
    2    6   11     -1.19      2.79 
    3    6   11     -0.29      1.06 
    4    6   11     -0.23      1.79 
   -4    7   11      0.46     -0.47 
   -3    7   11     -1.83      0.78 
   -2    7   11     -1.35     -0.94 
   -1    7   11     -2.11     -0.46 
    0    7   11     -0.75     -1.13 
    1    7   11     -1.21     -1.21 
    2    7   11     -0.29     -0.39 
    3    7   11      0.20     -1.52 
   -4    8   11     -0.78      1.52 
   -3    8   11     -1.81      0.35 
   -2    8   11     -0.55      0.40 
   -1    8   11     -1.93     -1.15 
    0    8   11     -0.50      0.82 
    1    8   11     -0.71      0.83 
    2    8   11     -1.94      1.49 
    3    8   11     -0.21      0.99 
   -3    9   11     -1.06      0.12 
   -2    9   11     -0.03     -0.93 
   -1    9   11     -0.56     -0.70 
    0    9   11     -0.45     -1.50 
    1    9   11     -0.12     -0.58 
    2    9   11     -0.07     -0.39 
    3    9   11      0.95     -0.41 
   -3   10   11      0.52     -0.50 
   -2   10   11     -0.14     -0.02 
   -1   10   11      1.10     -2.05 
    0   10   11      0.63      0.31 
    1   10   11      0.22     -0.63 
    2   10   11     -0.85      0.04 
   -3   11   11     -0.39      0.44 
   -2   11   11      0.63     -0.34 
   -1   11   11      0.05      0.39 
    0   11   11      0.74     -1.07 
    1   11   11     -0.17      0.32 
    2   11   11      0.19     -0.18 
   -2   12   11      0.43     -0.63 
   -1   12   11      2.12     -0.20 
    0   12   11      0.70      0.80 
    1   12   11      1.30     -0.66 
   -1   13   11     -0.52      0.32 
    0   13   11      1.04     -0.01 
   -3    0   12      0.69     -0.01 
   -2    0   12      1.78     -0.01 
   -1    0   12      0.90      0.08 
    0    0   12      0.56      0.05 
    1    0   12      1.13     -0.01 
    2    0   12     -0.03     -0.02 
    3    0   12      1.69     -0.29 
   -3    1   12     -0.01     -1.51 
   -2    1   12     -0.84     -1.25 
   -1    1   12      0.87     -3.64 
    0    1   12     -0.16     -1.20 
    1    1   12      0.82     -2.26 
    2    1   12      0.47     -0.93 
    3    1   12      0.05      0.43 
   -3    2   12      0.28     -0.27 
   -2    2   12      0.26      0.75 
   -1    2   12     -0.06      0.57 
    0    2   12      0.29      0.04 
    1    2   12      0.06      0.81 
    2    2   12      0.46     -0.69 
    3    2   12      0.88      1.07 
   -3    3   12     -0.19     -0.79 
   -2    3   12     -1.07     -1.75 
   -1    3   12      0.67     -1.13 
    0    3   12     -0.64     -0.67 
    1    3   12      0.62     -0.21 
    2    3   12      0.21      0.01 
    3    3   12     -0.16      0.28 
   -3    4   12     -0.66     -0.55 
   -2    4   12     -0.99     -0.94 
   -1    4   12     -0.85     -0.59 
    0    4   12      0.30     -0.64 
    1    4   12     -0.75     -0.48 
    2    4   12      0.55     -0.53 
   -3    5   12     -0.89     -0.50 
   -2    5   12     -0.29     -1.10 
   -1    5   12     -0.93     -0.72 
    0    5   12     -0.84     -0.46 
    1    5   12     -0.79      0.08 
    2    5   12     -1.11     -0.16 
   -3    6   12     -0.83     -1.18 
   -2    6   12      0.37     -1.69 
   -1    6   12      0.12     -1.41 
    0    6   12      1.01     -0.98 
    1    6   12      0.32     -1.20 
    2    6   12      0.39     -0.67 
   -2    7   12     -0.16     -0.20 
   -1    7   12     -0.15     -1.62 
    0    7   12     -0.45     -0.10 
    1    7   12     -0.76     -0.27 
    2    7   12     -1.42     -0.82 
   -2    8   12      1.10     -0.37 
   -1    8   12      0.82     -0.56 
    0    8   12      1.35     -0.55 
    1    8   12      0.71     -0.35 
   -1    9   12      1.42     -0.36 
    0    9   12     -0.33      0.63 
    9    6    0     -0.44     -0.22 
    9    7    0      0.11      0.72 
    9    8    0      0.27     -0.47 
    9    9    0     -0.21      0.40 
    9   10    0      0.55      0.13 
    9   11    0     -0.18      0.23 
    8   13    0      0.07      0.40 
    8   14    0      0.49     -0.05 
    8   15    0     -0.04     -0.09 
    8   16    0      0.13      0.06 
    7   17    0      0.06      0.08 
    7   18    0     -0.66      0.74 
    7   19    0     -0.06      0.01 
    6   20    0     -0.02      0.30 
    6   21    0      0.57      0.07 
    5   22    0      0.90     -0.32 
    4   23    0     -0.78      0.87 
    5   23    0     -0.07      0.15 
    3   24    0      0.51     -0.06 
    4   24    0      0.40     -0.17 
    1   25    0      0.19      0.17 
    2   25    0     -0.83      0.26 
    3   25    0     -0.05      0.02 
   -9    6    1      0.92     -0.19 
    9    6    1     -0.57      0.69 
   -9    7    1      0.27      0.24 
    9    7    1      0.37     -0.45 
   -9    8    1      0.36      0.45 
    9    8    1     -0.42      0.18 
   -9    9    1     -0.14      0.62 
    9    9    1      0.26      0.20 
   -9   10    1     -0.02      0.32 
    9   10    1     -0.42     -0.06 
   -9   11    1     -0.39      0.21 
    9   11    1      0.09      0.20 
   -8   13    1     -0.26      0.06 
    8   13    1      0.11      1.11 
   -8   14    1      0.06      0.04 
    8   14    1     -0.24      0.10 
   -8   15    1      0.01     -0.10 
    8   15    1      0.02      0.45 
   -8   16    1     -0.37     -0.18 
    8   16    1     -0.01     -0.13 
   -7   17    1     -1.52     -0.01 
    7   17    1     -0.74     -0.13 
   -7   18    1      0.21      0.08 
    7   18    1      0.16      0.05 
   -7   19    1     -0.28     -0.63 
    6   19    1     -0.31      0.37 
    7   19    1      0.03     -0.43 
   -6   20    1      0.18     -0.70 
    6   20    1      0.32      0.85 
   -6   21    1     -0.16     -0.24 
    5   21    1      0.77      0.21 
    6   21    1     -0.25      0.04 
   -5   22    1      0.24     -0.15 
    5   22    1     -0.36     -0.34 
   -5   23    1     -0.11      0.59 
   -4   23    1      0.40      0.62 
    4   23    1      0.79      0.58 
    5   23    1      0.14      0.49 
   -4   24    1      0.44      0.66 
   -3   24    1     -0.30     -0.03 
    3   24    1      0.22     -0.41 
    4   24    1     -0.10     -0.51 
   -3   25    1     -0.31     -0.11 
   -2   25    1     -0.07     -0.12 
   -1   25    1     -0.15      0.46 
    0   25    1     -0.20      0.50 
    1   25    1      0.35      1.19 
    2   25    1      0.34     -0.35 
    3   25    1      0.15      0.35 
    9    4    2      0.45     -1.20 
   -9    5    2      0.28      0.72 
    9    5    2     -0.63     -0.28 
   -9    6    2     -0.62     -0.16 
    9    6    2      0.61      0.00 
   -9    7    2     -0.40      0.45 
    9    7    2     -0.30     -0.16 
   -9    8    2     -0.38     -0.21 
    9    8    2      0.08      0.20 
   -9    9    2     -0.42     -0.07 
    9    9    2     -0.18     -0.15 
   -9   10    2     -0.30     -0.39 
    9   10    2      0.00      0.18 
   -9   11    2     -0.10     -0.04 
    8   12    2     -1.45      0.25 
   -8   13    2      0.08      0.73 
    8   13    2     -0.14     -0.28 
   -8   14    2      0.50     -0.22 
    8   14    2     -0.78      0.03 
   -8   15    2      0.06     -0.32 
    8   15    2      0.00     -0.32 
    7   16    2     -0.39     -0.40 
   -7   17    2      0.35      0.12 
    7   17    2     -0.12      0.29 
   -7   18    2      0.30     -0.98 
    7   18    2      0.26     -0.22 
   -7   19    2     -0.16      0.18 
   -6   19    2      0.94      0.54 
    6   19    2     -0.48      0.54 
   -6   20    2      0.16     -0.26 
    6   20    2     -0.11     -0.14 
   -6   21    2     -0.01      0.40 
   -5   21    2      0.22      0.34 
    5   21    2     -0.04     -0.43 
    6   21    2     -0.15     -0.09 
   -5   22    2     -0.89      0.22 
    5   22    2     -0.03      0.61 
   -5   23    2      0.02      0.05 
   -4   23    2     -0.89      0.68 
    4   23    2      0.24      0.14 
    5   23    2      0.21     -0.01 
   -4   24    2     -0.38     -0.04 
   -3   24    2     -0.43     -0.52 
    3   24    2     -0.47      0.93 
    4   24    2     -0.40      0.18 
   -3   25    2      0.00      0.09 
   -2   25    2     -0.24      0.09 
   -1   25    2      0.89      0.30 
    0   25    2      0.23     -1.03 
    1   25    2      0.50      0.09 
    2   25    2      0.70     -0.49 
    3   25    2      0.44     -0.05 
    9    0    3      0.13      0.00 
    9    1    3      0.78     -0.93 
    9    2    3      0.22     -0.18 
    9    3    3      1.27      0.10 
   -9    4    3     -0.10      0.36 
    9    4    3      0.27     -0.30 
   -9    5    3      0.21     -1.15 
    9    5    3      0.20      0.54 
   -9    6    3     -0.40      0.05 
    9    6    3      0.09     -0.20 
   -9    7    3      0.48     -0.19 
    9    7    3     -0.27     -0.09 
   -9    8    3     -0.08     -0.34 
    9    8    3     -0.13     -0.12 
   -9    9    3      0.26     -0.05 
    9    9    3      0.01     -0.10 
   -9   10    3      0.05     -0.19 
    8   11    3     -0.37     -1.23 
   -8   12    3     -1.17      0.45 
    8   12    3      0.25     -0.08 
   -8   13    3      0.57      0.30 
    8   13    3     -0.06     -1.01 
   -8   14    3     -0.14     -0.11 
    8   14    3      0.42     -0.15 
   -8   15    3      0.11      0.49 
   -7   16    3      0.34      0.37 
    7   16    3     -0.38     -0.15 
   -7   17    3      0.90     -0.34 
    7   17    3      0.30      0.01 
   -7   18    3      0.01      0.11 
    6   18    3     -0.28     -0.11 
    7   18    3     -0.19     -0.09 
   -6   19    3      0.17     -0.21 
    6   19    3     -0.06      0.02 
   -6   20    3     -0.73      0.09 
    6   20    3     -0.08     -0.26 
   -6   21    3      0.18      0.00 
   -5   21    3     -0.37     -1.10 
    5   21    3     -0.40      0.72 
   -5   22    3     -0.17     -0.15 
   -4   22    3     -1.04     -1.09 
    4   22    3     -0.87     -0.31 
    5   22    3     -0.03     -0.28 
   -4   23    3     -0.14     -0.27 
    3   23    3     -1.23      0.21 
    4   23    3     -0.65     -0.75 
   -4   24    3     -0.22     -0.53 
   -3   24    3      0.48      0.01 
   -2   24    3     -0.22     -0.31 
    2   24    3      0.72     -0.01 
    3   24    3      0.12      0.60 
    4   24    3     -0.35      0.08 
   -3   25    3      0.55     -0.09 
   -2   25    3      0.16     -0.02 
   -1   25    3     -0.14     -0.15 
    0   25    3      0.31     -0.46 
    1   25    3     -0.53     -0.96 
    2   25    3      0.05      0.26 
    3   25    3     -0.62     -0.21 
   -9    0    4     -0.12      0.06 
    9    0    4      0.25      0.08 
   -9    1    4      0.10      0.16 
    9    1    4      0.18      0.08 
   -9    2    4      0.60     -0.88 
    9    2    4     -0.01      0.82 
   -9    3    4     -0.08      0.41 
    9    3    4      0.19      0.33 
   -9    4    4      1.18     -0.18 
    9    4    4     -0.37      0.42 
   -9    5    4     -0.40      0.09 
    9    5    4      0.16      0.11 
   -9    6    4      0.26      0.52 
    9    6    4      0.02     -0.36 
   -9    7    4     -0.06     -0.19 
    9    7    4      0.15     -0.08 
   -9    8    4     -0.25      0.21 
    9    8    4      0.42     -0.15 
   -9    9    4      0.19     -0.03 
    8   10    4      0.71     -0.37 
   -8   11    4     -0.49     -0.88 
    8   11    4      0.06     -0.01 
   -8   12    4      0.20      0.34 
    8   12    4      0.89     -0.15 
   -8   13    4      0.12     -0.51 
    8   13    4      0.19      0.47 
   -8   14    4     -0.20      0.39 
   -7   15    4      0.06      0.29 
    7   15    4     -0.10     -0.48 
   -7   16    4      0.31      0.40 
    7   16    4      0.16      0.35 
   -7   17    4     -0.17      0.37 
    7   17    4      0.04     -0.26 
   -7   18    4      0.28      0.32 
   -6   18    4      0.23     -0.23 
    6   18    4     -0.09     -0.20 
   -6   19    4     -0.35     -0.71 
    6   19    4      0.44     -0.39 
   -6   20    4      0.32      0.26 
   -5   20    4      1.44     -0.42 
    5   20    4     -0.51      0.34 
    6   20    4     -0.13     -0.28 
   -5   21    4      0.10     -0.38 
    5   21    4      1.01     -0.90 
   -5   22    4      0.58      0.34 
   -4   22    4      0.19      0.44 
    4   22    4      0.57     -1.03 
   -4   23    4      0.79     -0.44 
   -3   23    4      0.40      0.77 
    3   23    4     -0.24      0.32 
    4   23    4      0.25     -0.65 
   -3   24    4      0.35      0.35 
   -2   24    4      0.33     -0.14 
   -1   24    4      0.44     -0.17 
    0   24    4      0.95      0.05 
    1   24    4      0.92     -0.75 
    2   24    4      0.57      0.72 
    3   24    4     -0.06     -0.89 
   -2   25    4      0.24     -0.28 
   -1   25    4     -0.31      0.02 
    0   25    4     -0.24      0.79 
    1   25    4     -0.36     -0.14 
    2   25    4     -0.15      0.55 
   -9    0    5     -0.19     -0.05 
    9    0    5      0.13      0.00 
   -9    1    5      0.46      0.01 
    9    1    5     -0.27     -0.24 
   -9    2    5     -0.33      0.10 
    9    2    5     -0.20      0.27 
   -9    3    5      0.49      0.71 
    9    3    5     -0.37     -0.11 
   -9    4    5     -0.42     -0.19 
    9    4    5     -0.18      0.07 
   -9    5    5     -0.23      0.29 
    9    5    5      0.02     -0.02 
   -9    6    5     -0.06     -0.34 
   -9    7    5     -0.13     -0.37 
   -9    8    5      0.07     -0.01 
    8    8    5     -0.17     -0.24 
    8    9    5      0.24      0.24 
   -8   10    5      0.45     -0.08 
    8   10    5      0.28     -0.13 
   -8   11    5      0.09      0.19 
    8   11    5      0.15      0.49 
   -8   12    5      0.43      0.17 
    8   12    5     -0.31      0.23 
   -8   13    5     -0.27      0.24 
    7   13    5     -0.22      1.02 
   -7   14    5      0.04      0.15 
    7   14    5      0.32     -0.60 
   -7   15    5     -0.44     -0.18 
    7   15    5     -0.27      0.32 
   -7   16    5     -0.28     -0.10 
    7   16    5      0.37      0.03 
   -7   17    5     -0.03      0.12 
   -6   17    5      0.11     -0.14 
    6   17    5      0.09     -0.04 
   -6   18    5      0.51     -0.40 
    6   18    5      0.64      0.61 
   -6   19    5     -0.04      0.31 
    5   19    5     -0.37      0.40 
    6   19    5      0.15      0.01 
   -5   20    5      0.13     -0.04 
    5   20    5      1.82      0.63 
   -5   21    5     -0.38      1.00 
   -4   21    5     -1.23      0.99 
    4   21    5      0.78      0.18 
    5   21    5     -0.26     -0.31 
   -4   22    5      0.65      0.79 
   -3   22    5     -0.15      0.62 
    3   22    5     -0.14      0.46 
    4   22    5      1.06      0.37 
   -4   23    5     -0.38     -0.10 
   -3   23    5     -0.05      0.10 
   -2   23    5      0.35      0.40 
   -1   23    5      0.26      0.66 
    1   23    5      0.78      0.72 
    2   23    5     -0.89      1.04 
    3   23    5      0.58     -0.63 
   -3   24    5     -0.49     -0.13 
   -2   24    5      0.46      0.20 
   -1   24    5     -0.37      0.07 
    0   24    5     -0.83      0.10 
    1   24    5     -0.05     -0.41 
    2   24    5     -0.52     -0.01 
   -1   25    5      0.26      0.11 
    0   25    5      0.12      0.41 
    1   25    5      0.28      0.42 
   -9    0    6      0.19      0.00 
   -9    1    6      0.02     -0.20 
   -9    2    6     -0.21      0.47 
   -9    3    6      0.00     -0.23 
    8    3    6      0.94     -0.80 
   -9    4    6     -0.23      0.06 
    8    4    6     -0.41     -0.13 
   -9    5    6      0.18     -0.20 
    8    5    6     -0.10      0.07 
    8    6    6     -0.38     -0.02 
   -8    7    6      0.56      0.58 
    8    7    6     -0.25     -0.03 
   -8    8    6      0.28      0.00 
    8    8    6     -0.16      0.02 
   -8    9    6     -0.17      0.37 
    8    9    6      0.17      0.21 
   -8   10    6      0.02      0.09 
    8   10    6     -0.14     -0.01 
   -8   11    6     -0.32      0.17 
    7   11    6      0.38     -0.82 
   -8   12    6     -0.28     -0.06 
    7   12    6     -0.78     -0.44 
   -7   13    6      0.03     -0.01 
    7   13    6      0.80     -0.14 
   -7   14    6      0.25     -0.90 
    7   14    6     -0.35     -0.13 
   -7   15    6      0.25     -0.08 
    6   15    6     -0.23      0.12 
   -7   16    6      0.26     -0.01 
   -6   16    6     -0.01     -0.32 
    6   16    6     -0.36     -0.23 
   -6   17    6      0.36      0.31 
    6   17    6     -0.57      0.60 
   -6   18    6     -0.02     -0.06 
   -5   18    6     -0.43      0.36 
    5   18    6     -0.55      0.19 
   -5   19    6     -0.33     -0.09 
    5   19    6      0.14      1.42 
   -5   20    6     -0.96     -0.19 
   -4   20    6     -1.83     -1.10 
    4   20    6      0.09      0.34 
    5   20    6     -0.11     -0.34 
   -4   21    6     -0.63      0.47 
   -3   21    6     -0.20      0.52 
    3   21    6     -0.49      0.31 
    4   21    6      0.04      0.99 
   -4   22    6     -0.27     -0.94 
   -3   22    6      0.13     -0.08 
   -2   22    6     -0.57      0.27 
    1   22    6     -0.40      0.53 
    2   22    6     -1.03     -0.98 
    3   22    6      0.95     -0.39 
   -3   23    6     -0.13     -0.16 
   -2   23    6     -0.07      0.58 
   -1   23    6     -0.53     -0.41 
    0   23    6     -0.26     -0.51 
    1   23    6     -0.04     -0.20 
    2   23    6      0.03     -0.23 
   -1   24    6     -0.16      0.24 
    0   24    6     -0.30      0.28 
    1   24    6     -0.48      0.47 
   -8    0    7     -0.39      0.04 
    8    0    7      1.27     -0.08 
   -8    1    7     -0.15      0.31 
    8    1    7      0.16      0.44 
   -8    2    7     -0.20      0.27 
    8    2    7      0.84      0.50 
   -8    3    7     -0.88      0.63 
    8    3    7      0.06      0.07 
   -8    4    7     -0.02      0.95 
    8    4    7      0.08      0.23 
   -8    5    7     -1.02      0.14 
    8    5    7     -0.15     -0.41 
   -8    6    7     -0.52      0.98 
    8    6    7     -0.14     -0.26 
   -8    7    7     -0.27     -0.03 
    8    7    7     -0.05     -0.37 
   -8    8    7     -0.46      0.04 
   -8    9    7      0.02     -0.02 
    7    9    7     -0.08     -0.85 
   -8   10    7     -0.02     -0.31 
    7   10    7      0.27     -0.17 
   -7   11    7      0.83     -1.06 
    7   11    7      0.39     -0.79 
   -7   12    7      0.24      0.09 
    7   12    7      0.38      0.41 
   -7   13    7      0.92     -0.18 
    6   13    7     -0.77     -0.65 
    7   13    7      0.13     -0.36 
   -7   14    7      0.15      0.31 
    6   14    7      0.37     -0.36 
   -6   15    7      0.15     -0.36 
    6   15    7      0.07     -0.86 
   -6   16    7      0.06      0.23 
    5   16    7     -0.39     -0.32 
    6   16    7     -0.20     -0.39 
   -6   17    7      0.16     -0.01 
   -5   17    7      0.26      0.19 
    5   17    7     -0.29      0.00 
   -5   18    7     -0.33     -0.59 
    4   18    7      0.80     -0.45 
    5   18    7     -0.59      0.06 
   -5   19    7      0.07     -0.58 
   -4   19    7      0.49     -1.60 
    4   19    7      0.19      0.56 
   -4   20    7     -0.21     -0.59 
   -3   20    7     -0.45      0.00 
    3   20    7     -0.25     -0.03 
    4   20    7     -0.21      0.36 
   -4   21    7      0.95     -0.60 
   -3   21    7      0.13     -0.02 
   -2   21    7     -0.20     -0.93 
   -1   21    7     -0.09     -0.20 
    1   21    7     -0.30     -0.26 
    2   21    7      0.66     -1.11 
    3   21    7      1.06      0.41 
   -3   22    7     -0.28     -0.01 
   -2   22    7     -0.47     -0.06 
   -1   22    7      0.39     -0.59 
    0   22    7      0.20      0.03 
    1   22    7      0.02     -0.26 
    2   22    7      0.02      0.35 
   -1   23    7     -0.11     -0.11 
    0   23    7     -0.21     -0.09 
    1   23    7     -0.40     -0.28 
   -8    0    8      0.02     -0.01 
    8    0    8     -0.27     -0.01 
   -8    1    8     -0.03     -0.41 
   -8    2    8     -0.41     -0.12 
   -8    3    8     -0.43      0.05 
    7    3    8      0.48      0.60 
   -8    4    8     -0.45     -0.75 
    7    4    8      0.44      0.10 
   -8    5    8     -0.97     -0.12 
    7    5    8     -0.51      0.59 
   -8    6    8      0.05     -0.49 
    7    6    8      0.55     -0.33 
   -8    7    8     -0.43     -0.38 
    7    7    8     -0.29     -0.50 
   -7    8    8      0.12     -0.52 
    7    8    8      0.48     -0.25 
   -7    9    8      0.19     -0.18 
    7    9    8      0.25     -0.36 
   -7   10    8      0.81      0.03 
    7   10    8      0.54      0.09 
   -7   11    8     -0.05      0.25 
    6   11    8      0.57      0.43 
   -7   12    8      0.40      0.37 
    6   12    8     -0.26     -0.45 
   -6   13    8      0.68      0.94 
    6   13    8      0.43      0.49 
   -6   14    8      0.21     -0.25 
    5   14    8      0.04      0.33 
    6   14    8      0.65     -0.50 
   -6   15    8      0.02      0.43 
   -5   15    8     -0.89     -0.51 
    5   15    8      0.41     -0.28 
   -5   16    8     -0.29      0.58 
    5   16    8     -0.27     -0.01 
   -5   17    8      0.18     -0.61 
   -4   17    8      0.00     -0.68 
    4   17    8      0.75      0.74 
    5   17    8      0.17     -0.32 
   -5   18    8      0.22      0.01 
   -4   18    8      0.74      0.11 
    3   18    8      0.38     -0.05 
    4   18    8     -0.67      0.87 
   -4   19    8      0.45     -0.18 
   -3   19    8      0.46     -0.20 
    2   19    8      0.14      1.37 
    3   19    8     -0.06      0.02 
    4   19    8     -0.17      0.42 
   -3   20    8      0.22     -0.05 
   -2   20    8      1.34     -0.21 
   -1   20    8     -0.26      0.27 
    0   20    8      0.18     -0.45 
    1   20    8      0.17     -0.32 
    2   20    8      0.88     -0.10 
    3   20    8      0.25      0.62 
   -2   21    8      0.33     -0.21 
   -1   21    8      0.35      0.52 
    0   21    8     -0.46      0.19 
    1   21    8     -0.04     -0.04 
    2   21    8     -0.54      0.30 
   -1   22    8     -0.01      0.04 
    0   22    8     -0.08     -0.13 
    1   22    8      0.14     -0.21 
   -7    0    9      0.80     -0.02 
    7    0    9      0.54      0.05 
   -7    1    9      0.22      0.04 
    7    1    9     -0.41      0.33 
   -7    2    9      0.20      0.38 
    7    2    9      0.02      0.29 
   -7    3    9      0.15      0.19 
    7    3    9     -0.29     -0.03 
   -7    4    9     -0.12     -0.43 
    7    4    9     -0.46     -0.18 
   -7    5    9     -0.03     -0.16 
    7    5    9      0.35      0.26 
   -7    6    9      0.65     -0.66 
    7    6    9      0.09     -0.34 
   -7    7    9      0.26     -0.05 
    6    7    9     -0.46      1.00 
   -7    8    9      0.50      0.06 
    6    8    9      0.06      0.34 
   -7    9    9      0.19      0.37 
    6    9    9     -1.01      0.19 
   -6   10    9      0.20      0.79 
    6   10    9     -0.29      0.39 
   -6   11    9      0.53      0.37 
    6   11    9     -0.33     -0.56 
   -6   12    9     -0.62      0.80 
    5   12    9      0.14     -0.42 
    6   12    9     -0.34      0.24 
   -6   13    9      0.28     -0.03 
   -5   13    9     -0.23     -0.17 
    5   13    9     -0.03      0.48 
   -5   14    9     -0.30     -0.83 
    4   14    9     -0.49      0.50 
    5   14    9      0.12      0.29 
   -5   15    9     -0.31     -0.20 
   -4   15    9     -0.07     -0.73 
    4   15    9     -0.18      0.16 
    5   15    9     -0.09     -0.12 
   -5   16    9      0.28     -0.24 
   -4   16    9      0.00     -0.37 
    3   16    9     -0.07      0.10 
    4   16    9     -0.47      0.58 
   -4   17    9     -0.02     -0.02 
   -3   17    9      0.24      0.33 
    2   17    9      0.81     -0.79 
    3   17    9      0.28     -0.36 
    4   17    9     -0.86     -0.23 
   -4   18    9      0.20      0.17 
   -3   18    9      0.39      0.93 
   -2   18    9      0.08      0.50 
   -1   18    9     -0.45      0.91 
    1   18    9     -0.08     -0.38 
    2   18    9     -0.38      1.03 
    3   18    9     -0.02      0.12 
   -3   19    9      0.28      0.19 
   -2   19    9      0.42      1.52 
   -1   19    9     -0.62     -0.34 
    0   19    9      0.55     -0.10 
    1   19    9      0.25      0.16 
    2   19    9      0.42      0.36 
   -2   20    9      0.09      0.57 
   -1   20    9     -0.66      0.13 
    0   20    9     -0.19     -0.65 
    1   20    9     -0.13     -0.36 
   -7    0   10     -0.11     -0.01 
    6    0   10     -0.61      0.04 
   -7    1   10     -0.15      0.27 
    6    1   10     -0.01      0.32 
   -7    2   10     -0.19      0.01 
    6    2   10     -0.79     -0.48 
   -7    3   10     -0.08     -0.06 
    6    3   10     -0.13     -0.12 
   -7    4   10     -0.06     -0.17 
   -6    4   10     -0.50     -0.01 
    6    4   10     -0.75     -0.60 
   -7    5   10      0.30      0.14 
   -6    5   10      0.47      0.50 
    6    5   10      0.09     -0.50 
   -6    6   10     -0.82      0.12 
    6    6   10     -0.51     -0.32 
   -6    7   10      0.42      0.68 
    6    7   10      0.08     -0.19 
   -6    8   10     -0.71      0.08 
    5    8   10      0.35     -0.53 
    6    8   10     -0.21     -0.51 
   -6    9   10     -0.22      0.41 
    5    9   10      0.50     -1.00 
   -6   10   10     -0.41      0.28 
   -5   10   10      0.35      0.04 
    5   10   10      0.39      0.20 
   -5   11   10      0.18     -0.52 
    5   11   10      0.54     -0.22 
   -5   12   10      0.40      0.10 
    4   12   10      0.70      0.15 
    5   12   10     -0.33      0.30 
   -5   13   10      0.35     -0.37 
   -4   13   10     -0.22     -0.65 
    4   13   10     -0.35     -0.53 
   -5   14   10      0.27      0.08 
   -4   14   10      0.86     -0.30 
    3   14   10      0.40     -0.55 
    4   14   10      0.28      0.25 
   -4   15   10      0.32     -0.49 
   -3   15   10      0.77      1.80 
    2   15   10     -0.61      1.59 
    3   15   10     -0.16      0.15 
    4   15   10     -0.34     -0.26 
   -4   16   10      0.33     -0.13 
   -3   16   10     -0.41      0.38 
   -2   16   10     -0.76      0.67 
   -1   16   10     -0.97     -0.60 
    0   16   10      0.82     -0.13 
    1   16   10     -0.42      0.62 
    2   16   10      0.77     -0.05 
    3   16   10      0.57     -0.06 
   -3   17   10     -0.75      0.76 
   -2   17   10     -0.09     -0.16 
   -1   17   10     -0.80      0.01 
    0   17   10      0.47      0.47 
    1   17   10      0.01     -0.04 
    2   17   10     -0.87      0.56 
   -2   18   10     -1.02      0.61 
   -1   18   10      0.04     -0.66 
    0   18   10      0.23      0.44 
    1   18   10     -0.34      0.11 
   -6    0   11      0.11      0.01 
    5    0   11     -0.44      0.03 
   -6    1   11      0.18     -1.01 
    5    1   11      0.53     -1.06 
   -6    2   11     -0.27      0.44 
    5    2   11     -0.56      0.13 
   -6    3   11      0.16     -0.43 
    5    3   11      0.86     -0.41 
   -6    4   11     -0.29      0.26 
   -5    4   11      0.32     -0.43 
    5    4   11     -0.37     -0.13 
   -6    5   11     -0.10     -0.40 
   -5    5   11      0.35      0.64 
    5    5   11      0.26     -0.18 
   -6    6   11     -0.24      0.30 
   -5    6   11      0.07      0.43 
    5    6   11      0.15     -0.15 
   -5    7   11     -0.06      0.67 
    4    7   11      0.55     -0.74 
    5    7   11      0.39     -0.02 
   -5    8   11     -0.27      0.15 
    4    8   11     -0.76      0.67 
    5    8   11      0.44      0.10 
   -5    9   11     -0.15      0.26 
   -4    9   11      1.15     -0.24 
    4    9   11      0.84     -0.13 
   -5   10   11      0.13      0.05 
   -4   10   11     -0.72      0.73 
    3   10   11      0.18      0.43 
    4   10   11     -0.08     -0.26 
   -5   11   11     -0.17      0.22 
   -4   11   11      0.94      0.54 
    3   11   11      0.32      0.20 
    4   11   11      0.38      0.37 
   -4   12   11     -0.08     -0.05 
   -3   12   11      0.96      1.00 
    2   12   11     -0.24     -0.12 
    3   12   11      0.39      0.18 
    4   12   11      0.24     -0.26 
   -4   13   11      0.32      0.56 
   -3   13   11     -0.58      0.39 
   -2   13   11      0.43     -0.05 
    1   13   11     -0.49      0.43 
    2   13   11      0.44     -0.01 
    3   13   11      0.17      0.16 
   -3   14   11     -0.57      0.95 
   -2   14   11      1.01     -0.43 
   -1   14   11      0.38      0.55 
    0   14   11     -0.34      0.90 
    1   14   11      0.56      0.22 
    2   14   11     -0.73     -0.13 
    3   14   11     -0.14      0.13 
   -3   15   11     -0.59     -0.16 
   -2   15   11     -0.07     -0.24 
   -1   15   11     -0.21     -0.60 
    0   15   11      0.38      0.27 
    1   15   11     -0.52     -0.14 
    2   15   11      0.45      0.21 
   -2   16   11      0.54      0.21 
   -1   16   11     -0.25     -0.41 
    0   16   11     -0.59      0.51 
    1   16   11     -0.19     -0.06 
   -5    0   12      0.55     -0.01 
   -4    0   12      2.47      0.00 
    4    0   12     -0.21      0.03 
   -5    1   12      0.18     -0.72 
   -4    1   12     -0.37     -0.74 
    4    1   12      0.21     -0.09 
   -5    2   12      0.51      0.00 
   -4    2   12      1.41      0.82 
    4    2   12      0.31     -0.16 
   -5    3   12      0.50     -0.42 
   -4    3   12     -0.32     -0.83 
    4    3   12     -0.06      0.50 
   -5    4   12     -0.26      0.51 
   -4    4   12     -0.17      0.46 
    3    4   12      0.03      0.21 
    4    4   12      0.52      0.09 
   -5    5   12      0.32      0.01 
   -4    5   12     -0.48     -0.26 
    3    5   12     -0.56     -0.01 
    4    5   12     -0.87      0.41 
   -5    6   12     -0.77      0.23 
   -4    6   12     -0.08     -0.02 
    3    6   12      0.77     -0.33 
    4    6   12      0.34     -0.05 
   -4    7   12     -0.93     -0.22 
   -3    7   12     -0.54     -1.14 
    3    7   12     -0.87     -0.06 
    4    7   12     -0.86     -0.12 
   -4    8   12      0.34      0.52 
   -3    8   12     -0.10     -1.06 
    2    8   12      0.59     -0.29 
    3    8   12      0.69      0.62 
   -4    9   12     -0.77     -0.30 
   -3    9   12      0.54     -0.38 
   -2    9   12     -0.37      0.05 
    1    9   12     -0.04      0.07 
    2    9   12     -0.73     -0.76 
    3    9   12     -0.72     -0.10 
   -3   10   12     -0.01     -0.38 
   -2   10   12      0.39      0.46 
   -1   10   12      0.04      0.39 
    0   10   12      0.91      0.24 
    1   10   12      0.04      0.14 
    2   10   12      0.30      0.23 
    3   10   12     -0.12      0.60 
   -3   11   12      0.11      0.59 
   -2   11   12      0.04     -0.14 
   -1   11   12      0.98      1.20 
    0   11   12     -0.53      0.70 
    1   11   12      0.47      0.75 
    2   11   12     -0.07     -0.32 
   -3   12   12     -0.28     -0.17 
   -2   12   12     -0.02      0.35 
   -1   12   12     -0.70      0.11 
    0   12   12      0.08      0.53 
    1   12   12     -0.40      0.00 
    2   12   12      0.05      0.19 
   -2   13   12      0.56      0.32 
   -1   13   12      0.05      0.78 
    0   13   12     -0.46      0.14 
    1   13   12      0.04      0.78 
    0   14   12     -0.06      0.15 
    0    0    0      0.00      0.00 
loop_ 
  _platon_squeeze_void_nr 
  _platon_squeeze_void_average_x 
  _platon_squeeze_void_average_y 
  _platon_squeeze_void_average_z 
  _platon_squeeze_void_volume 
  _platon_squeeze_void_count_electrons 
  _platon_squeeze_void_content 
   1 -0.015  0.052  0.276       157        47 ' ' 
   2 -0.011  0.552  0.724       156        47 ' ' 
_platon_squeeze_void_probe_radius                  1.20 
_platon_squeeze_details 
) 
TITL dc27909/lt/MQ2072 in P2(1) 
CELL    7.6590   20.7140   10.7415     90.00     92.16     90.00 
SPGR P21 
C101 0.022 1.001 0.228 !       6.76 eA-3 
C102 0.991 0.123 0.329 !       5.76 eA-3 
C103 0.995 0.952 0.243 !       5.40 eA-3 
C104 0.430 0.644 0.788 !       4.27 eA-3 
C105 0.884 0.049 0.300 !       4.25 eA-3 
C106 0.477 0.534 0.635 !       3.03 eA-3 
C107 0.823 0.527 0.770 !       2.92 eA-3 
C108 0.819 0.577 0.714 !       1.16 eA-3 
C109 0.648 0.058 0.318 !       1.11 eA-3 
C110 0.717 0.074 0.294 !       1.11 eA-3 
C111 0.226 0.593 0.715 !       1.04 eA-3 
C112 0.433 0.078 0.227 !       1.00 eA-3 
C113 0.084 0.530 0.613 !       0.79 eA-3 
C114 0.216 0.045 0.324 !       0.75 eA-3 
C115 0.694 0.112 0.219 !       0.72 eA-3 
Q116 0.496 0.672 0.698 !       0.69 eA-3 
C117 0.587 0.642 0.757 !       0.64 eA-3 
Q118 0.969 0.637 0.779 !       0.63 eA-3 
C119 1.005 0.464 0.677 !       0.61 eA-3 
C120 0.899 0.067 0.182 !       0.56 eA-3 
C121 0.654 0.532 0.812 !       0.56 eA-3 
C122 0.377 0.624 0.707 !       0.56 eA-3 
Q123 0.742 0.047 0.178 !       0.55 eA-3 
C124 0.503 0.138 0.103 !       0.50 eA-3 
) 
;
_shelx_fab_checksum              11843
loop_
_space_group_symop_operation_xyz
'x, y, z'
'-x, y+1/2, -z'
loop_
_atom_site_label
_atom_site_type_symbol
_atom_site_fract_x
_atom_site_fract_y
_atom_site_fract_z
_atom_site_U_iso_or_equiv
_atom_site_adp_type
_atom_site_occupancy
_atom_site_site_symmetry_order
_atom_site_calc_flag
_atom_site_refinement_flags_posn
_atom_site_refinement_flags_adp
O1 O 0.4143(3) 0.16758(14) 0.6705(3) 0.0447(7) Uani 1 1 d . .
H1 H 0.4694 0.1495 0.7300 0.067 Uiso 1 1 calc R U
O7 O -0.0772(3) 0.63136(11) 0.3240(2) 0.0300(6) Uani 1 1 d . .
H7 H -0.1815 0.6409 0.3371 0.045 Uiso 1 1 calc R U
O1' O 0.9349(3) 0.13566(11) -0.0865(2) 0.0346(6) Uani 1 1 d . .
H1' H 0.9694 0.1453 -0.1574 0.052 Uiso 1 1 calc R U
O7' O 0.4027(3) 0.61180(10) 0.1295(2) 0.0282(6) Uani 1 1 d . .
H7' H 0.3001 0.6205 0.1048 0.042 Uiso 1 1 calc R U
C1 C 0.5215(5) 0.21726(19) 0.6188(4) 0.0401(10) Uani 1 1 d . .
H1A H 0.5828 0.2412 0.6885 0.048 Uiso 1 1 calc R U
C2 C 0.6586(5) 0.1905(2) 0.5314(4) 0.0497(11) Uani 1 1 d . .
H2A H 0.6200 0.1487 0.4955 0.060 Uiso 1 1 calc R U
H2B H 0.7721 0.1843 0.5769 0.060 Uiso 1 1 calc R U
C3 C 0.6746(6) 0.2420(2) 0.4274(5) 0.0535(12) Uani 1 1 d . .
H3A H 0.7979 0.2549 0.4182 0.064 Uiso 1 1 calc R U
H3B H 0.6270 0.2256 0.3465 0.064 Uiso 1 1 calc R U
C4 C 0.5044(5) 0.34984(17) 0.3829(3) 0.0315(8) Uani 1 1 d . .
H4A H 0.4245 0.3307 0.3184 0.038 Uiso 1 1 calc R U
H4B H 0.6056 0.3685 0.3409 0.038 Uiso 1 1 calc R U
C5 C 0.3424(4) 0.45506(16) 0.3576(3) 0.0259(8) Uani 1 1 d . .
H5A H 0.4273 0.4911 0.3589 0.031 Uiso 1 1 calc R U
H5B H 0.3405 0.4361 0.2729 0.031 Uiso 1 1 calc R U
C6 C 0.1231(4) 0.54492(15) 0.3474(3) 0.0222(7) Uani 1 1 d . .
H6 H 0.2098 0.5718 0.3135 0.027 Uiso 1 1 calc R U
C7 C -0.0443(4) 0.56926(16) 0.3635(3) 0.0261(8) Uani 1 1 d . .
C8 C -0.1691(4) 0.52984(17) 0.4144(3) 0.0313(9) Uani 1 1 d . .
H8 H -0.2830 0.5460 0.4276 0.038 Uiso 1 1 calc R U
C9 C -0.1274(4) 0.46723(18) 0.4458(3) 0.0348(9) Uani 1 1 d . .
H9 H -0.2138 0.4403 0.4801 0.042 Uiso 1 1 calc R U
C10 C 0.0917(4) 0.37450(18) 0.4663(3) 0.0333(9) Uani 1 1 d . .
H10A H 0.1013 0.3470 0.3914 0.040 Uiso 1 1 calc R U
H10B H 0.0029 0.3554 0.5198 0.040 Uiso 1 1 calc R U
C11 C 0.3234(5) 0.31749(19) 0.6118(3) 0.0351(9) Uani 1 1 d . .
H11A H 0.4017 0.3308 0.6826 0.042 Uiso 1 1 calc R U
H11B H 0.2174 0.2985 0.6470 0.042 Uiso 1 1 calc R U
C12 C 0.2893(5) 0.22881(19) 0.4502(4) 0.0428(10) Uani 1 1 d . .
H12A H 0.3418 0.1876 0.4268 0.064 Uiso 1 1 calc R U
H12B H 0.2661 0.2549 0.3753 0.064 Uiso 1 1 calc R U
H12C H 0.1794 0.2206 0.4914 0.064 Uiso 1 1 calc R U
C3A C 0.5667(4) 0.29802(17) 0.4730(3) 0.0314(9) Uani 1 1 d . .
H3A1 H 0.6397 0.3202 0.5393 0.038 Uiso 1 1 calc R U
C4A C 0.4096(4) 0.40282(16) 0.4518(3) 0.0252(8) Uani 1 1 d . .
H4A1 H 0.5001 0.4245 0.5069 0.030 Uiso 1 1 calc R U
C5A C 0.1641(4) 0.48216(15) 0.3803(3) 0.0233(8) Uani 1 1 d . .
C9A C 0.0381(4) 0.44253(17) 0.4284(3) 0.0295(8) Uani 1 1 d . .
C10A C 0.2694(4) 0.37810(18) 0.5380(3) 0.0297(8) Uani 1 1 d . .
H10C H 0.2561 0.4127 0.6018 0.036 Uiso 1 1 calc R U
C11A C 0.4151(4) 0.26512(18) 0.5394(3) 0.0307(8) Uani 1 1 d . .
C1' C 1.0041(4) 0.17998(16) 0.0020(3) 0.0294(8) Uani 1 1 d . .
H1'1 H 0.9671 0.1653 0.0857 0.035 Uiso 1 1 calc R U
C2' C 1.2061(5) 0.18265(18) 0.0069(4) 0.0399(10) Uani 1 1 d . .
H2'1 H 1.2523 0.1735 -0.0761 0.048 Uiso 1 1 calc R U
H2'2 H 1.2553 0.1508 0.0674 0.048 Uiso 1 1 calc R U
C3' C 1.2531(5) 0.25268(18) 0.0489(4) 0.0455(11) Uani 1 1 d . .
H3'1 H 1.3334 0.2523 0.1233 0.055 Uiso 1 1 calc R U
H3'2 H 1.3087 0.2767 -0.0187 0.055 Uiso 1 1 calc R U
C4' C 1.0610(4) 0.35508(17) 0.0786(3) 0.0316(9) Uani 1 1 d . .
H4'1 H 1.0850 0.3718 -0.0053 0.038 Uiso 1 1 calc R U
H4'2 H 1.1483 0.3739 0.1384 0.038 Uiso 1 1 calc R U
C5' C 0.8594(4) 0.44913(16) 0.0938(3) 0.0289(8) Uani 1 1 d . .
H5'1 H 0.9068 0.4714 0.1694 0.035 Uiso 1 1 calc R U
H5'2 H 0.9336 0.4613 0.0240 0.035 Uiso 1 1 calc R U
C6' C 0.6193(4) 0.53180(16) 0.1122(3) 0.0239(8) Uani 1 1 d . .
H6' H 0.6940 0.5570 0.1654 0.029 Uiso 1 1 calc R U
C7' C 0.4515(4) 0.55316(15) 0.0811(3) 0.0238(8) Uani 1 1 d . .
C8' C 0.3425(4) 0.51681(16) 0.0042(3) 0.0289(8) Uani 1 1 d . .
H8' H 0.2270 0.5311 -0.0159 0.035 Uiso 1 1 calc R U
C9' C 0.4033(4) 0.45895(17) -0.0436(3) 0.0302(8) Uani 1 1 d . .
H9' H 0.3283 0.4340 -0.0971 0.036 Uiso 1 1 calc R U
C10' C 0.6446(4) 0.37412(17) -0.0597(3) 0.0293(8) Uani 1 1 d . .
H10D H 0.7355 0.3826 -0.1207 0.035 Uiso 1 1 calc R U
H10E H 0.5509 0.3480 -0.1011 0.035 Uiso 1 1 calc R U
C11' C 0.7640(4) 0.26531(16) 0.0313(3) 0.0272(8) Uani 1 1 d . .
H11C H 0.7476 0.2419 0.1104 0.033 Uiso 1 1 calc R U
H11D H 0.6774 0.2481 -0.0309 0.033 Uiso 1 1 calc R U
C12' C 0.9691(5) 0.27111(17) -0.1475(3) 0.0333(9) Uani 1 1 d . .
H12D H 1.0872 0.2602 -0.1728 0.050 Uiso 1 1 calc R U
H12E H 0.9512 0.3178 -0.1548 0.050 Uiso 1 1 calc R U
H12F H 0.8831 0.2486 -0.2016 0.050 Uiso 1 1 calc R U
C3B C 1.0789(4) 0.28272(17) 0.0790(3) 0.0313(9) Uani 1 1 d . .
H3B1 H 1.0502 0.2676 0.1642 0.038 Uiso 1 1 calc R U
C4B C 0.8757(4) 0.37616(17) 0.1144(3) 0.0269(8) Uani 1 1 d . .
H4B1 H 0.8691 0.3689 0.2062 0.032 Uiso 1 1 calc R U
C5B C 0.6773(4) 0.47385(16) 0.0657(3) 0.0244(8) Uani 1 1 d . .
C9B C 0.5707(4) 0.43698(16) -0.0150(3) 0.0259(8) Uani 1 1 d . .
C10B C 0.7239(4) 0.33730(16) 0.0523(3) 0.0267(8) Uani 1 1 d . .
H10F H 0.6305 0.3375 0.1149 0.032 Uiso 1 1 calc R U
C11B C 0.9474(4) 0.25041(16) -0.0131(3) 0.0252(8) Uani 1 1 d . .
loop_
_atom_site_aniso_label
_atom_site_aniso_U_11
_atom_site_aniso_U_22
_atom_site_aniso_U_33
_atom_site_aniso_U_23
_atom_site_aniso_U_13
_atom_site_aniso_U_12
O1 0.0292(14) 0.0531(17) 0.0508(17) 0.0305(14) -0.0109(12) -0.0102(13)
O7 0.0247(13) 0.0254(13) 0.0399(14) 0.0007(11) 0.0029(11) 0.0019(11)
O1' 0.0303(14) 0.0248(13) 0.0497(16) -0.0072(13) 0.0123(13) -0.0059(11)
O7' 0.0264(13) 0.0258(13) 0.0322(13) -0.0055(11) -0.0008(11) 0.0035(10)
C1 0.026(2) 0.042(2) 0.051(2) 0.023(2) -0.0071(18) -0.0062(17)
C2 0.033(2) 0.043(3) 0.072(3) 0.024(2) 0.003(2) 0.0067(19)
C3 0.047(3) 0.047(3) 0.067(3) 0.020(2) 0.019(2) 0.011(2)
C4 0.030(2) 0.030(2) 0.034(2) 0.0056(17) 0.0052(16) -0.0013(16)
C5 0.0232(18) 0.0280(19) 0.0267(17) 0.0072(15) 0.0030(14) -0.0063(16)
C6 0.0219(18) 0.026(2) 0.0185(16) -0.0027(14) 0.0008(13) -0.0068(14)
C7 0.0234(19) 0.026(2) 0.0285(18) 0.0003(16) -0.0031(15) 0.0004(15)
C8 0.0145(17) 0.041(2) 0.039(2) 0.0075(18) -0.0010(15) -0.0048(16)
C9 0.0173(18) 0.039(2) 0.048(2) 0.0141(19) 0.0021(16) -0.0095(16)
C10 0.0202(18) 0.039(2) 0.040(2) 0.0116(18) 0.0020(16) -0.0040(16)
C11 0.028(2) 0.046(2) 0.0312(19) 0.0139(18) 0.0044(16) -0.0029(17)
C12 0.043(2) 0.034(2) 0.050(3) 0.0155(19) -0.017(2) -0.0022(18)
C3A 0.0222(19) 0.031(2) 0.041(2) 0.0141(17) 0.0062(16) 0.0029(15)
C4A 0.0159(17) 0.034(2) 0.0259(17) 0.0039(15) 0.0010(14) -0.0034(15)
C5A 0.0203(18) 0.025(2) 0.0244(17) -0.0003(15) -0.0032(14) -0.0070(14)
C9A 0.0214(19) 0.032(2) 0.0350(19) 0.0057(17) -0.0021(15) -0.0073(15)
C10A 0.0227(18) 0.034(2) 0.0324(19) 0.0101(17) 0.0046(15) -0.0034(16)
C11A 0.0218(18) 0.037(2) 0.033(2) 0.0133(17) -0.0010(15) -0.0024(16)
C1' 0.031(2) 0.0245(19) 0.0328(19) -0.0017(17) 0.0084(16) -0.0016(16)
C2' 0.030(2) 0.037(2) 0.052(2) -0.011(2) -0.0018(18) 0.0062(17)
C3' 0.030(2) 0.040(2) 0.065(3) -0.017(2) -0.0077(19) 0.0061(19)
C4' 0.0197(18) 0.034(2) 0.040(2) -0.0111(17) -0.0025(16) -0.0014(16)
C5' 0.0244(19) 0.028(2) 0.0341(19) -0.0049(16) 0.0008(15) 0.0041(15)
C6' 0.0238(18) 0.0246(19) 0.0232(17) -0.0035(15) 0.0007(14) -0.0084(15)
C7' 0.0229(18) 0.0215(18) 0.0273(18) 0.0012(15) 0.0034(15) 0.0022(14)
C8' 0.0236(19) 0.027(2) 0.035(2) 0.0008(16) -0.0026(16) -0.0027(15)
C9' 0.0252(19) 0.032(2) 0.0330(19) -0.0049(17) -0.0080(15) -0.0066(16)
C10' 0.029(2) 0.033(2) 0.0264(18) -0.0090(17) -0.0011(15) 0.0025(16)
C11' 0.0208(18) 0.029(2) 0.0322(19) -0.0046(17) 0.0050(15) -0.0033(15)
C12' 0.042(2) 0.028(2) 0.0308(19) -0.0050(17) 0.0140(16) -0.0048(17)
C3B 0.025(2) 0.037(2) 0.0314(19) -0.0051(17) -0.0022(16) 0.0034(16)
C4B 0.0260(19) 0.031(2) 0.0236(17) -0.0040(16) 0.0018(14) 0.0002(16)
C5B 0.0213(18) 0.0251(19) 0.0268(17) -0.0003(15) 0.0011(15) -0.0019(14)
C9B 0.0275(19) 0.0248(19) 0.0251(17) -0.0003(15) -0.0026(15) -0.0016(15)
C10B 0.0211(18) 0.029(2) 0.0305(19) -0.0062(16) 0.0042(15) -0.0007(15)
C11B 0.0197(18) 0.0286(19) 0.0274(19) -0.0021(15) 0.0041(15) -0.0032(15)
loop_
_atom_type_symbol
_atom_type_description
_atom_type_scat_dispersion_real
_atom_type_scat_dispersion_imag
_atom_type_scat_source
C C 0.0033 0.0016 'International Tables Vol C Tables 4.2.6.8 and 6.1.1.4'
H H 0.0000 0.0000 'International Tables Vol C Tables 4.2.6.8 and 6.1.1.4'
O O 0.0106 0.0060 'International Tables Vol C Tables 4.2.6.8 and 6.1.1.4'
Cl Cl 0.1484 0.1585 'International Tables Vol C Tables 4.2.6.8 and 6.1.1.4'
loop_
_geom_angle_atom_site_label_1
_geom_angle_atom_site_label_2
_geom_angle_atom_site_label_3
_geom_angle
C1 O1 H1 109.5
C7 O7 H7 109.5
C1' O1' H1' 109.5
C7' O7' H7' 109.5
O1 C1 C11A 112.3(3)
O1 C1 C2 113.0(3)
C11A C1 C2 104.8(3)
O1 C1 H1A 108.9
C11A C1 H1A 108.9
C2 C1 H1A 108.9
C1 C2 C3 105.5(3)
C1 C2 H2A 110.6
C3 C2 H2A 110.6
C1 C2 H2B 110.6
C3 C2 H2B 110.6
H2A C2 H2B 108.8
C3A C3 C2 103.5(3)
C3A C3 H3A 111.1
C2 C3 H3A 111.1
C3A C3 H3B 111.1
C2 C3 H3B 111.1
H3A C3 H3B 109.0
C3A C4 C4A 110.2(3)
C3A C4 H4A 109.6
C4A C4 H4A 109.6
C3A C4 H4B 109.6
C4A C4 H4B 109.6
H4A C4 H4B 108.1
C5A C5 C4A 115.7(2)
C5A C5 H5A 108.4
C4A C5 H5A 108.4
C5A C5 H5B 108.4
C4A C5 H5B 108.4
H5A C5 H5B 107.4
C5A C6 C7 120.7(3)
C5A C6 H6 119.7
C7 C6 H6 119.7
O7 C7 C8 123.5(3)
O7 C7 C6 117.3(3)
C8 C7 C6 119.1(3)
C9 C8 C7 119.7(3)
C9 C8 H8 120.1
C7 C8 H8 120.1
C8 C9 C9A 121.4(3)
C8 C9 H9 119.3
C9A C9 H9 119.3
C9A C10 C10A 108.3(3)
C9A C10 H10A 110.0
C10A C10 H10A 110.0
C9A C10 H10B 110.0
C10A C10 H10B 110.0
H10A C10 H10B 108.4
C11A C11 C10A 116.1(3)
C11A C11 H11A 108.3
C10A C11 H11A 108.3
C11A C11 H11B 108.3
C10A C11 H11B 108.3
H11A C11 H11B 107.4
C11A C12 H12A 109.5
C11A C12 H12B 109.5
H12A C12 H12B 109.5
C11A C12 H12C 109.5
H12A C12 H12C 109.5
H12B C12 H12C 109.5
C4 C3A C3 120.0(3)
C4 C3A C11A 112.6(3)
C3 C3A C11A 103.9(3)
C4 C3A H3A1 106.5
C3 C3A H3A1 106.5
C11A C3A H3A1 106.5
C4 C4A C10A 114.2(3)
C4 C4A C5 109.7(3)
C10A C4A C5 113.8(3)
C4 C4A H4A1 106.1
C10A C4A H4A1 106.1
C5 C4A H4A1 106.1
C6 C5A C9A 120.0(3)
C6 C5A C5 120.6(3)
C9A C5A C5 119.3(3)
C5A C9A C9 119.1(3)
C5A C9A C10 117.8(3)
C9 C9A C10 123.1(3)
C4A C10A C11 113.9(3)
C4A C10A C10 109.9(3)
C11 C10A C10 115.8(3)
C4A C10A H10C 105.4
C11 C10A H10C 105.4
C10 C10A H10C 105.4
C11 C11A C1 115.2(3)
C11 C11A C12 112.2(3)
C1 C11A C12 110.0(3)
C11 C11A C3A 106.9(3)
C1 C11A C3A 98.6(3)
C12 C11A C3A 113.2(3)
O1' C1' C11B 116.8(3)
O1' C1' C2' 113.3(3)
C11B C1' C2' 104.4(3)
O1' C1' H1'1 107.3
C11B C1' H1'1 107.3
C2' C1' H1'1 107.3
C1' C2' C3' 105.2(3)
C1' C2' H2'1 110.7
C3' C2' H2'1 110.7
C1' C2' H2'2 110.7
C3' C2' H2'2 110.7
H2'1 C2' H2'2 108.8
C3B C3' C2' 104.4(3)
C3B C3' H3'1 110.9
C2' C3' H3'1 110.9
C3B C3' H3'2 110.9
C2' C3' H3'2 110.9
H3'1 C3' H3'2 108.9
C3B C4' C4B 111.4(3)
C3B C4' H4'1 109.3
C4B C4' H4'1 109.3
C3B C4' H4'2 109.3
C4B C4' H4'2 109.3
H4'1 C4' H4'2 108.0
C5B C5' C4B 115.7(3)
C5B C5' H5'1 108.4
C4B C5' H5'1 108.4
C5B C5' H5'2 108.4
C4B C5' H5'2 108.4
H5'1 C5' H5'2 107.4
C5B C6' C7' 119.8(3)
C5B C6' H6' 120.1
C7' C6' H6' 120.1
C8' C7' O7' 122.8(3)
C8' C7' C6' 120.4(3)
O7' C7' C6' 116.8(3)
C7' C8' C9' 119.3(3)
C7' C8' H8' 120.3
C9' C8' H8' 120.3
C9B C9' C8' 121.4(3)
C9B C9' H9' 119.3
C8' C9' H9' 119.3
C9B C10' C10B 108.9(3)
C9B C10' H10D 109.9
C10B C10' H10D 109.9
C9B C10' H10E 109.9
C10B C10' H10E 109.9
H10D C10' H10E 108.3
C11B C11' C10B 115.5(3)
C11B C11' H11C 108.4
C10B C11' H11C 108.4
C11B C11' H11D 108.4
C10B C11' H11D 108.4
H11C C11' H11D 107.5
C11B C12' H12D 109.5
C11B C12' H12E 109.5
H12D C12' H12E 109.5
C11B C12' H12F 109.5
H12D C12' H12F 109.5
H12E C12' H12F 109.5
C4' C3B C3' 119.3(3)
C4' C3B C11B 112.0(3)
C3' C3B C11B 104.2(3)
C4' C3B H3B1 106.9
C3' C3B H3B1 106.9
C11B C3B H3B1 106.9
C5' C4B C10B 113.3(3)
C5' C4B C4' 108.2(3)
C10B C4B C4' 115.3(3)
C5' C4B H4B1 106.5
C10B C4B H4B1 106.5
C4' C4B H4B1 106.5
C6' C5B C9B 120.8(3)
C6' C5B C5' 122.1(3)
C9B C5B C5' 117.0(3)
C9' C9B C5B 118.3(3)
C9' C9B C10' 124.7(3)
C5B C9B C10' 116.9(3)
C10' C10B C11' 116.3(3)
C10' C10B C4B 110.5(3)
C11' C10B C4B 114.6(3)
C10' C10B H10F 104.7
C11' C10B H10F 104.7
C4B C10B H10F 104.7
C12' C11B C1' 109.2(3)
C12' C11B C11' 111.9(3)
C1' C11B C11' 114.8(3)
C12' C11B C3B 113.3(3)
C1' C11B C3B 99.8(3)
C11' C11B C3B 107.3(3)
loop_
_geom_bond_atom_site_label_1
_geom_bond_atom_site_label_2
_geom_bond_distance
O1 C1 1.441(4)
O1 H1 0.8400
O7 C7 1.375(4)
O7 H7 0.8400
O1' C1' 1.411(4)
O1' H1' 0.8400
O7' C7' 1.378(4)
O7' H7' 0.8400
C1 C11A 1.524(5)
C1 C2 1.538(6)
C1 H1A 1.0000
C2 C3 1.552(6)
C2 H2A 0.9900
C2 H2B 0.9900
C3 C3A 1.516(6)
C3 H3A 0.9900
C3 H3B 0.9900
C4 C3A 1.511(5)
C4 C4A 1.523(5)
C4 H4A 0.9900
C4 H4B 0.9900
C5 C5A 1.505(4)
C5 C4A 1.556(5)
C5 H5A 0.9900
C5 H5B 0.9900
C6 C5A 1.380(4)
C6 C7 1.395(4)
C6 H6 0.9500
C7 C8 1.385(5)
C8 C9 1.374(5)
C8 H8 0.9500
C9 C9A 1.386(5)
C9 H9 0.9500
C10 C9A 1.519(5)
C10 C10A 1.540(5)
C10 H10A 0.9900
C10 H10B 0.9900
C11 C11A 1.522(5)
C11 C10A 1.533(5)
C11 H11A 0.9900
C11 H11B 0.9900
C12 C11A 1.530(5)
C12 H12A 0.9800
C12 H12B 0.9800
C12 H12C 0.9800
C3A C11A 1.544(5)
C3A H3A1 1.0000
C4A C10A 1.532(4)
C4A H4A1 1.0000
C5A C9A 1.382(4)
C10A H10C 1.0000
C1' C11B 1.529(5)
C1' C2' 1.547(5)
C1' H1'1 1.0000
C2' C3' 1.557(5)
C2' H2'1 0.9900
C2' H2'2 0.9900
C3' C3B 1.517(5)
C3' H3'1 0.9900
C3' H3'2 0.9900
C4' C3B 1.505(5)
C4' C4B 1.547(4)
C4' H4'1 0.9900
C4' H4'2 0.9900
C5' C5B 1.506(4)
C5' C4B 1.532(5)
C5' H5'1 0.9900
C5' H5'2 0.9900
C6' C5B 1.380(4)
C6' C7' 1.388(5)
C6' H6' 0.9500
C7' C8' 1.375(5)
C8' C9' 1.391(5)
C8' H8' 0.9500
C9' C9B 1.384(5)
C9' H9' 0.9500
C10' C9B 1.505(5)
C10' C10B 1.530(5)
C10' H10D 0.9900
C10' H10E 0.9900
C11' C11B 1.532(4)
C11' C10B 1.541(5)
C11' H11C 0.9900
C11' H11D 0.9900
C12' C11B 1.521(5)
C12' H12D 0.9800
C12' H12E 0.9800
C12' H12F 0.9800
C3B C11B 1.538(5)
C3B H3B1 1.0000
C4B C10B 1.545(5)
C4B H4B1 1.0000
C5B C9B 1.396(4)
C10B H10F 1.0000
loop_
_geom_hbond_atom_site_label_D
_geom_hbond_atom_site_label_H
_geom_hbond_atom_site_label_A
_geom_hbond_distance_DH
_geom_hbond_distance_HA
_geom_hbond_distance_DA
_geom_hbond_angle_DHA
_geom_hbond_site_symmetry_A
O1 H1 O7' 0.84 1.93 2.772(3) 177.4 2_646
O7 H7 O1 0.84 1.87 2.691(3) 167.4 2_556
O1' H1' O7 0.84 2.02 2.813(3) 157.4 2_645
C6 H6 O7' 0.95 2.65 3.517(4) 152.7 .
loop_
_geom_torsion_atom_site_label_1
_geom_torsion_atom_site_label_2
_geom_torsion_atom_site_label_3
_geom_torsion_atom_site_label_4
_geom_torsion
O1 C1 C2 C3 144.9(4)
C11A C1 C2 C3 22.3(4)
C1 C2 C3 C3A 7.9(5)
C5A C6 C7 O7 -177.5(3)
C5A C6 C7 C8 0.7(5)
O7 C7 C8 C9 176.8(3)
C6 C7 C8 C9 -1.3(5)
C7 C8 C9 C9A 0.5(5)
C4A C4 C3A C3 -176.3(3)
C4A C4 C3A C11A 61.0(4)
C2 C3 C3A C4 -161.9(3)
C2 C3 C3A C11A -35.0(4)
C3A C4 C4A C10A -49.6(4)
C3A C4 C4A C5 -178.7(3)
C5A C5 C4A C4 140.4(3)
C5A C5 C4A C10A 11.0(4)
C7 C6 C5A C9A 0.8(5)
C7 C6 C5A C5 177.2(3)
C4A C5 C5A C6 149.4(3)
C4A C5 C5A C9A -34.2(4)
C6 C5A C9A C9 -1.6(5)
C5 C5A C9A C9 -178.1(3)
C6 C5A C9A C10 -178.4(3)
C5 C5A C9A C10 5.1(5)
C8 C9 C9A C5A 1.0(5)
C8 C9 C9A C10 177.6(3)
C10A C10 C9A C5A 44.0(4)
C10A C10 C9A C9 -132.6(4)
C4 C4A C10A C11 41.0(4)
C5 C4A C10A C11 168.1(3)
C4 C4A C10A C10 -90.7(4)
C5 C4A C10A C10 36.3(4)
C11A C11 C10A C4A -43.5(4)
C11A C11 C10A C10 85.4(4)
C9A C10 C10A C4A -64.1(4)
C9A C10 C10A C11 165.2(3)
C10A C11 C11A C1 159.9(3)
C10A C11 C11A C12 -73.3(4)
C10A C11 C11A C3A 51.4(4)
O1 C1 C11A C11 81.1(4)
C2 C1 C11A C11 -155.9(3)
O1 C1 C11A C12 -46.9(4)
C2 C1 C11A C12 76.1(4)
O1 C1 C11A C3A -165.6(3)
C2 C1 C11A C3A -42.5(4)
C4 C3A C11A C11 -60.7(4)
C3 C3A C11A C11 167.9(3)
C4 C3A C11A C1 179.6(3)
C3 C3A C11A C1 48.2(4)
C4 C3A C11A C12 63.4(4)
C3 C3A C11A C12 -68.0(4)
O1' C1' C2' C3' 150.9(3)
C11B C1' C2' C3' 22.7(4)
C1' C2' C3' C3B 6.1(4)
C5B C6' C7' C8' 0.1(5)
C5B C6' C7' O7' -179.2(3)
O7' C7' C8' C9' 178.2(3)
C6' C7' C8' C9' -1.1(5)
C7' C8' C9' C9B 0.4(5)
C4B C4' C3B C3' -178.6(3)
C4B C4' C3B C11B 59.5(4)
C2' C3' C3B C4' -158.4(3)
C2' C3' C3B C11B -32.7(4)
C5B C5' C4B C10B 23.7(4)
C5B C5' C4B C4' 152.9(3)
C3B C4' C4B C5' -171.9(3)
C3B C4' C4B C10B -43.9(4)
C7' C6' C5B C9B 1.6(5)
C7' C6' C5B C5' 178.5(3)
C4B C5' C5B C6' 141.9(3)
C4B C5' C5B C9B -41.1(4)
C8' C9' C9B C5B 1.2(5)
C8' C9' C9B C10' 178.1(3)
C6' C5B C9B C9' -2.2(5)
C5' C5B C9B C9' -179.3(3)
C6' C5B C9B C10' -179.3(3)
C5' C5B C9B C10' 3.6(4)
C10B C10' C9B C9' -129.1(3)
C10B C10' C9B C5B 47.7(4)
C9B C10' C10B C11' 165.1(3)
C9B C10' C10B C4B -62.0(3)
C11B C11' C10B C10' 90.5(4)
C11B C11' C10B C4B -40.5(4)
C5' C4B C10B C10' 26.2(4)
C4' C4B C10B C10' -99.3(3)
C5' C4B C10B C11' 160.0(3)
C4' C4B C10B C11' 34.5(4)
O1' C1' C11B C12' -49.0(4)
C2' C1' C11B C12' 77.0(3)
O1' C1' C11B C11' 77.6(4)
C2' C1' C11B C11' -156.3(3)
O1' C1' C11B C3B -168.0(3)
C2' C1' C11B C3B -42.0(3)
C10B C11' C11B C12' -71.5(4)
C10B C11' C11B C1' 163.2(3)
C10B C11' C11B C3B 53.4(4)
C4' C3B C11B C12' 60.7(4)
C3' C3B C11B C12' -69.5(4)
C4' C3B C11B C1' 176.6(3)
C3' C3B C11B C1' 46.4(3)
C4' C3B C11B C11' -63.4(4)
C3' C3B C11B C11' 166.4(3)
